*
* Deltares, Delft3D-RGFGRID Version 4.17.03.7767, Jul 10 2009, 10:12:13
* File creation date: 2010-07-15, 14:49:24
*
Coordinate System = Cartesian
       5       4
 0 0 0
 ETA=    1   1.00000000000000000E+02   2.00000000000000000E+02   3.00000000000000000E+02   4.00000000000000000E+02   5.00000000000000000E+02
 ETA=    2   1.00000000000000000E+02   2.00000000000000000E+02   3.00000000000000000E+02   4.00000000000000000E+02   5.00000000000000000E+02
 ETA=    3   1.00000000000000000E+02   2.00000000000000000E+02   3.00000000000000000E+02   4.00000000000000000E+02   5.00000000000000000E+02
 ETA=    4   1.00000000000000000E+02   2.00000000000000000E+02   3.00000000000000000E+02   4.00000000000000000E+02   5.00000000000000000E+02
 ETA=    1   1.00000000000000000E+02   1.00000000000000000E+02   1.00000000000000000E+02   1.00000000000000000E+02   1.00000000000000000E+02
 ETA=    2   2.00000000000000000E+02   2.00000000000000000E+02   2.00000000000000000E+02   2.00000000000000000E+02   2.00000000000000000E+02
 ETA=    3   3.00000000000000000E+02   3.00000000000000000E+02   3.00000000000000000E+02   3.00000000000000000E+02   3.00000000000000000E+02
 ETA=    4   4.00000000000000000E+02   4.00000000000000000E+02   4.00000000000000000E+02   4.00000000000000000E+02   4.00000000000000000E+02
