Ident = #Delft3D-FLOW  .03.02 3.39.28#
Commnt=                              
Filcco= #s99-adap.grd#
Fmtcco= #FR#
Filgrd= #s99-adap.enc#
Fmtgrd= #FR#
MNKmax= 294 252 1
Thick =  1.0000000e+002
Commnt=                              
Fildep= #s1999_d.dep#
Fmtdep= #FR#
Commnt=                              
Commnt=                              no. dry points: 652
Fildry= #s99-adap.dry#
Fmtdry= #FR#
Commnt=                              no. thin dams: 86
Filtd = #s99-adap.thd#
Fmttd = #FR#
Commnt=                              
Itdate= #1999-01-01#
Tunit = #M#
Tstart=  4.4640000e+004
Tstop =  8.4960000e+004
Dt    = 4
Tzone = 0
Commnt=                              
Sub1  = #    #
Sub2  = #   #
Commnt=                              
Wnsvwp= #N#
Wndint= #Y#
Commnt=                              
Zeta0 =  0.0000000e+000
U0    = [.]
V0    = [.]
S0    = [.]
Commnt=                              
Commnt=                              no. open boundaries: 17
Filbnd= #s21.bnd#
Fmtbnd= #FR#
Filana= #astro.bca#
Fmtana= #FR#
Filcor= #correction.cor#
Fmtcor= #FR#
Commnt=                              
Ag    =  9.8100000e+000
Rhow  =  1.0000000e+003
Alph0 = [.]
Tempw =  1.5000000e+001
Salw  =  3.1000000e+001
Rouwav= #    #
Wstres=  6.3000000e-004  0.0000000e+000  7.2300000e-003  1.0000000e+002
Rhoa  =  1.0000000e+000
Betac =  5.0000000e-001
Equili= #N#
Tkemod= #            #
Ktemp = 0
Fclou =  0.0000000e+000
Sarea =  0.0000000e+000
Temint= #Y#
Commnt=                              
Roumet= #M#
Filrgh= #manning.rgh#
Fmtrgh= #FR#
Xlo   =  0.0000000e+000
Vicouv=  1.0000000e+000
Dicouv=  1.0000000e+000
Htur2d= #N#
Irov  = 0
Commnt=                              
Iter  =      2
Dryflp= #YES#
Dpsopt= #MEAN#
Dpuopt= #MIN#
Dryflc=  1.0000000e-001
Dco   = -9.9900000e+002
Tlfsmo=  6.0000000e+001
ThetQH=  0.0000000e+000
Forfuv= #Y#
Forfww= #N#
Sigcor= #N#
Trasol= #Cyclic-method#
Momsol= #Cyclic#
Commnt=                              
Commnt=                              no. discharges: 0
Commnt=                              no. observation points: 472
Filsta= #a.obs#
Fmtsta= #FR#
Commnt=                              no. drogues: 0
Commnt=                              
Commnt=                              
Commnt=                              no. cross sections: 17
Filcrs= #010.crs#
Fmtcrs= #FR#
Commnt=                              
SMhydr= #YYYYY#     
SMderv= #YYYYYY#    
SMproc= #YYYYYYYYYY#
PMhydr= #YYYYYY#    
PMderv= #YYY#       
PMproc= #YYYYYYYYYY#
SHhydr= #YYYY#      
SHderv= #YYYYY#     
SHproc= #YYYYYYYYYY#
SHflux= #YYYY#      
PHhydr= #YYYYYY#    
PHderv= #YYY#       
PHproc= #YYYYYYYYYY#
PHflux= #YYYY#      
Online= #N#
Prhis =  4.4352000e+005 0  4.4352000e+005
Flmap =  4.4640000e+004 1440  8.4960000e+004
Flhis =  4.4640000e+004 60  8.4960000e+004
Flpp  =  4.4640000e+004 0  8.4960000e+004
Flrst = 1440
Commnt=                              
Fmtfou= #FR#
Fmtfou= #FR#
Corbnd= #SRM_ADT_BNDS_Spline_Norm_V4.bcr#
Commnt=                              
