*
* Deltares, Delft3D-RGFGRID Version 4.18.01.18383, Sep  7 2011, 14:23:22
* File creation date: 2011-10-21, 11:11:32
*
Coordinate System = Cartesian
     100       2
 0 0 0
 ETA=    1   4.95010000000000000E+04   5.00010000000000000E+04   5.05010000000000000E+04   5.10010000000000000E+04   5.15010000000000000E+04
             5.20010000000000000E+04   5.25010000000000000E+04   5.30010000000000000E+04   5.35010000000000000E+04   5.40010000000000000E+04
             5.45010000000000000E+04   5.50010000000000000E+04   5.55010000000000000E+04   5.60010000000000000E+04   5.65010000000000000E+04
             5.70010000000000000E+04   5.75010000000000000E+04   5.80010000000000000E+04   5.85010000000000000E+04   5.90010000000000000E+04
             5.95010000000000000E+04   6.00010000000000000E+04   6.05010000000000000E+04   6.10010000000000000E+04   6.15010000000000000E+04
             6.20010000000000000E+04   6.25010000000000000E+04   6.30010000000000000E+04   6.35010000000000000E+04   6.40010000000000000E+04
             6.45010000000000000E+04   6.50010000000000000E+04   6.55010000000000000E+04   6.60010000000000000E+04   6.65010000000000000E+04
             6.70010000000000000E+04   6.75010000000000000E+04   6.80010000000000000E+04   6.85010000000000000E+04   6.90010000000000000E+04
             6.95010000000000000E+04   7.00010000000000000E+04   7.05010000000000000E+04   7.10010000000000000E+04   7.15010000000000000E+04
             7.20010000000000000E+04   7.25010000000000000E+04   7.30010000000000000E+04   7.35010000000000000E+04   7.40010000000000000E+04
             7.45010000000000000E+04   7.50010000000000000E+04   7.55010000000000000E+04   7.60010000000000000E+04   7.65010000000000000E+04
             7.70010000000000000E+04   7.75010000000000000E+04   7.80010000000000000E+04   7.85010000000000000E+04   7.90010000000000000E+04
             7.95010000000000000E+04   8.00010000000000000E+04   8.05010000000000000E+04   8.10010000000000000E+04   8.15010000000000000E+04
             8.20010000000000000E+04   8.25010000000000000E+04   8.30010000000000000E+04   8.35010000000000000E+04   8.40010000000000000E+04
             8.45010000000000000E+04   8.50010000000000000E+04   8.55010000000000000E+04   8.60010000000000000E+04   8.65010000000000000E+04
             8.70010000000000000E+04   8.75010000000000000E+04   8.80010000000000000E+04   8.85010000000000000E+04   8.90010000000000000E+04
             8.95010000000000000E+04   9.00010000000000000E+04   9.05010000000000000E+04   9.10010000000000000E+04   9.15010000000000000E+04
             9.20010000000000000E+04   9.25010000000000000E+04   9.30010000000000000E+04   9.35010000000000000E+04   9.40010000000000000E+04
             9.45010000000000000E+04   9.50010000000000000E+04   9.55010000000000000E+04   9.60010000000000000E+04   9.65010000000000000E+04
             9.70010000000000000E+04   9.75010000000000000E+04   9.80010000000000000E+04   9.85010000000000000E+04   9.90010000000000000E+04
 ETA=    2   4.95010000000000000E+04   5.00010000000000000E+04   5.05010000000000000E+04   5.10010000000000000E+04   5.15010000000000000E+04
             5.20010000000000000E+04   5.25010000000000000E+04   5.30010000000000000E+04   5.35010000000000000E+04   5.40010000000000000E+04
             5.45010000000000000E+04   5.50010000000000000E+04   5.55010000000000000E+04   5.60010000000000000E+04   5.65010000000000000E+04
             5.70010000000000000E+04   5.75010000000000000E+04   5.80010000000000000E+04   5.85010000000000000E+04   5.90010000000000000E+04
             5.95010000000000000E+04   6.00010000000000000E+04   6.05010000000000000E+04   6.10010000000000000E+04   6.15010000000000000E+04
             6.20010000000000000E+04   6.25010000000000000E+04   6.30010000000000000E+04   6.35010000000000000E+04   6.40010000000000000E+04
             6.45010000000000000E+04   6.50010000000000000E+04   6.55010000000000000E+04   6.60010000000000000E+04   6.65010000000000000E+04
             6.70010000000000000E+04   6.75010000000000000E+04   6.80010000000000000E+04   6.85010000000000000E+04   6.90010000000000000E+04
             6.95010000000000000E+04   7.00010000000000000E+04   7.05010000000000000E+04   7.10010000000000000E+04   7.15010000000000000E+04
             7.20010000000000000E+04   7.25010000000000000E+04   7.30010000000000000E+04   7.35010000000000000E+04   7.40010000000000000E+04
             7.45010000000000000E+04   7.50010000000000000E+04   7.55010000000000000E+04   7.60010000000000000E+04   7.65010000000000000E+04
             7.70010000000000000E+04   7.75010000000000000E+04   7.80010000000000000E+04   7.85010000000000000E+04   7.90010000000000000E+04
             7.95010000000000000E+04   8.00010000000000000E+04   8.05010000000000000E+04   8.10010000000000000E+04   8.15010000000000000E+04
             8.20010000000000000E+04   8.25010000000000000E+04   8.30010000000000000E+04   8.35010000000000000E+04   8.40010000000000000E+04
             8.45010000000000000E+04   8.50010000000000000E+04   8.55010000000000000E+04   8.60010000000000000E+04   8.65010000000000000E+04
             8.70010000000000000E+04   8.75010000000000000E+04   8.80010000000000000E+04   8.85010000000000000E+04   8.90010000000000000E+04
             8.95010000000000000E+04   9.00010000000000000E+04   9.05010000000000000E+04   9.10010000000000000E+04   9.15010000000000000E+04
             9.20010000000000000E+04   9.25010000000000000E+04   9.30010000000000000E+04   9.35010000000000000E+04   9.40010000000000000E+04
             9.45010000000000000E+04   9.50010000000000000E+04   9.55010000000000000E+04   9.60010000000000000E+04   9.65010000000000000E+04
             9.70010000000000000E+04   9.75010000000000000E+04   9.80010000000000000E+04   9.85010000000000000E+04   9.90010000000000000E+04
 ETA=    1   1.00000000000000000E+00   1.00000000000000000E+00   1.00000000000000000E+00   1.00000000000000000E+00   1.00000000000000000E+00
             1.00000000000000000E+00   1.00000000000000000E+00   1.00000000000000000E+00   1.00000000000000000E+00   1.00000000000000000E+00
             1.00000000000000000E+00   1.00000000000000000E+00   1.00000000000000000E+00   1.00000000000000000E+00   1.00000000000000000E+00
             1.00000000000000000E+00   1.00000000000000000E+00   1.00000000000000000E+00   1.00000000000000000E+00   1.00000000000000000E+00
             1.00000000000000000E+00   1.00000000000000000E+00   1.00000000000000000E+00   1.00000000000000000E+00   1.00000000000000000E+00
             1.00000000000000000E+00   1.00000000000000000E+00   1.00000000000000000E+00   1.00000000000000000E+00   1.00000000000000000E+00
             1.00000000000000000E+00   1.00000000000000000E+00   1.00000000000000000E+00   1.00000000000000000E+00   1.00000000000000000E+00
             1.00000000000000000E+00   1.00000000000000000E+00   1.00000000000000000E+00   1.00000000000000000E+00   1.00000000000000000E+00
             1.00000000000000000E+00   1.00000000000000000E+00   1.00000000000000000E+00   1.00000000000000000E+00   1.00000000000000000E+00
             1.00000000000000000E+00   1.00000000000000000E+00   1.00000000000000000E+00   1.00000000000000000E+00   1.00000000000000000E+00
             1.00000000000000000E+00   1.00000000000000000E+00   1.00000000000000000E+00   1.00000000000000000E+00   1.00000000000000000E+00
             1.00000000000000000E+00   1.00000000000000000E+00   1.00000000000000000E+00   1.00000000000000000E+00   1.00000000000000000E+00
             1.00000000000000000E+00   1.00000000000000000E+00   1.00000000000000000E+00   1.00000000000000000E+00   1.00000000000000000E+00
             1.00000000000000000E+00   1.00000000000000000E+00   1.00000000000000000E+00   1.00000000000000000E+00   1.00000000000000000E+00
             1.00000000000000000E+00   1.00000000000000000E+00   1.00000000000000000E+00   1.00000000000000000E+00   1.00000000000000000E+00
             1.00000000000000000E+00   1.00000000000000000E+00   1.00000000000000000E+00   1.00000000000000000E+00   1.00000000000000000E+00
             1.00000000000000000E+00   1.00000000000000000E+00   1.00000000000000000E+00   1.00000000000000000E+00   1.00000000000000000E+00
             1.00000000000000000E+00   1.00000000000000000E+00   1.00000000000000000E+00   1.00000000000000000E+00   1.00000000000000000E+00
             1.00000000000000000E+00   1.00000000000000000E+00   1.00000000000000000E+00   1.00000000000000000E+00   1.00000000000000000E+00
             1.00000000000000000E+00   1.00000000000000000E+00   1.00000000000000000E+00   1.00000000000000000E+00   1.00000000000000000E+00
 ETA=    2   5.01000000000000000E+02   5.01000000000000000E+02   5.01000000000000000E+02   5.01000000000000000E+02   5.01000000000000000E+02
             5.01000000000000000E+02   5.01000000000000000E+02   5.01000000000000000E+02   5.01000000000000000E+02   5.01000000000000000E+02
             5.01000000000000000E+02   5.01000000000000000E+02   5.01000000000000000E+02   5.01000000000000000E+02   5.01000000000000000E+02
             5.01000000000000000E+02   5.01000000000000000E+02   5.01000000000000000E+02   5.01000000000000000E+02   5.01000000000000000E+02
             5.01000000000000000E+02   5.01000000000000000E+02   5.01000000000000000E+02   5.01000000000000000E+02   5.01000000000000000E+02
             5.01000000000000000E+02   5.01000000000000000E+02   5.01000000000000000E+02   5.01000000000000000E+02   5.01000000000000000E+02
             5.01000000000000000E+02   5.01000000000000000E+02   5.01000000000000000E+02   5.01000000000000000E+02   5.01000000000000000E+02
             5.01000000000000000E+02   5.01000000000000000E+02   5.01000000000000000E+02   5.01000000000000000E+02   5.01000000000000000E+02
             5.01000000000000000E+02   5.01000000000000000E+02   5.01000000000000000E+02   5.01000000000000000E+02   5.01000000000000000E+02
             5.01000000000000000E+02   5.01000000000000000E+02   5.01000000000000000E+02   5.01000000000000000E+02   5.01000000000000000E+02
             5.01000000000000000E+02   5.01000000000000000E+02   5.01000000000000000E+02   5.01000000000000000E+02   5.01000000000000000E+02
             5.01000000000000000E+02   5.01000000000000000E+02   5.01000000000000000E+02   5.01000000000000000E+02   5.01000000000000000E+02
             5.01000000000000000E+02   5.01000000000000000E+02   5.01000000000000000E+02   5.01000000000000000E+02   5.01000000000000000E+02
             5.01000000000000000E+02   5.01000000000000000E+02   5.01000000000000000E+02   5.01000000000000000E+02   5.01000000000000000E+02
             5.01000000000000000E+02   5.01000000000000000E+02   5.01000000000000000E+02   5.01000000000000000E+02   5.01000000000000000E+02
             5.01000000000000000E+02   5.01000000000000000E+02   5.01000000000000000E+02   5.01000000000000000E+02   5.01000000000000000E+02
             5.01000000000000000E+02   5.01000000000000000E+02   5.01000000000000000E+02   5.01000000000000000E+02   5.01000000000000000E+02
             5.01000000000000000E+02   5.01000000000000000E+02   5.01000000000000000E+02   5.01000000000000000E+02   5.01000000000000000E+02
             5.01000000000000000E+02   5.01000000000000000E+02   5.01000000000000000E+02   5.01000000000000000E+02   5.01000000000000000E+02
             5.01000000000000000E+02   5.01000000000000000E+02   5.01000000000000000E+02   5.01000000000000000E+02   5.01000000000000000E+02
