Ident  = #Delft3D-FLOW  .03.02 3.42.00.17210#
Commnt =                  
Filcco = #estuary1.grd#
Anglat =  5.2000000e+001
Grdang =  0.0000000e+000
Filgrd = #estuary1.enc#
MNKmax = 101 3 1
Thick  =  1.0000000e+002
Commnt =                  
Fildep = #bathymetryslope5e-05b1.dep#
Commnt =                  
Commnt =                 no. dry points: 0
Commnt =                 no. thin dams: 0
Commnt =                  
Itdate = #1991-01-01#
Tunit  = #M#
Tstart =  0.0000000e+000
Tstop  =  5.7600000e+003
Dt     = 10
Tzone  = 0
Commnt =                  
Sub1   = #    #
Sub2   = #   #
Commnt =                  
Wnsvwp = #N#
Wndint = #Y#
Commnt =                  
Zeta0  =  1.0000000e+000
Commnt =                  
Commnt =                 no. open boundaries: 2
Filbnd = #estuary1.bnd#
FilbcT = #estuary1.bct#
Filana = #estuary1.bca#
Filcor = #estuary1.cor#
Commnt =                  
Ag     =  9.8100000e+000
Rhow   =  1.0000000e+003
Tempw  =  1.5000000e+001
Salw   =  3.1000000e+001
Wstres =  6.3000000e-004  0.0000000e+000  7.2300000e-003  1.0000000e+002  7.2300000e-003  1.0000000e+002
Rhoa   =  1.0000000e+000
Betac  =  5.0000000e-001
Equili = #N#
Ktemp  = 0
Fclou  =  0.0000000e+000
Sarea  =  0.0000000e+000
Temint = #Y#
Commnt =                  
Roumet = #M#
Filrgh = #manning1.rgh#
Xlo    =  0.0000000e+000
Vicouv =  1.0000000e+001
Dicouv =  1.0000000e+001
Htur2d = #N#
Irov   = 0
Commnt =                  
Iter   =      2
Dryflp = #YES#
Dpsopt = #MEAN#
Dpuopt = #MEAN#
Dryflc =  1.0000000e-002
Dco    = -9.9900000e+002
Tlfsmo =  3.6000000e+002
ThetQH =  0.0000000e+000
Forfuv = #Y#
Forfww = #N#
Sigcor = #N#
Trasol = #Cyclic-method#
Momsol = #Cyclic#
Commnt =                  
Commnt =                 no. discharges: 0
Commnt =                 no. observation points: 1
Filsta = #estuary1.obs#
Commnt =                 no. drogues: 0
Commnt =                  
Commnt =                  
Commnt =                 no. cross sections: 0
Commnt =                  
SMhydr = #YYYYY#     
SMderv = #YYYYYY#    
SMproc = #YYYYYYYYYY#
PMhydr = #YYYYYY#    
PMderv = #YYY#       
PMproc = #YYYYYYYYYY#
SHhydr = #YYYY#      
SHderv = #YYYYY#     
SHproc = #YYYYYYYYYY#
SHflux = #YYYY#      
PHhydr = #YYYYYY#    
PHderv = #YYY#       
PHproc = #YYYYYYYYYY#
PHflux = #YYYY#      
Online = #N#
Flmap  =  2.8800000e+003 60  5.7600000e+003
Flhis  =  0.0000000e+000 30  5.7600000e+003
Flpp   =  0.0000000e+000 0  5.7600000e+003
Flrst  = 2880
Commnt =                  
Commnt =                  
