*
* Deltares, Delft3D-RGFGRID Version 4.18.01.18419M, Sep 15 2011, 14:23:24
* File creation date: 2013-07-02, 14:02:16
*
