#------------------------------------------------------
# Deltares, D-Flow FM Version 1.1.35.22725:22731M, Oct 11 2012, 12:57:19
# Created on 2012-12-06T16:27:57+0100, D-Flow FM
#------------------------------------------------------
# Location    : Obs02
# Position    : (134,2)
# Source      : model
# Unit        : waterlevel
# Analyse time: most recent
# Timezone    : GMT
#------------------------------------------------------
199208310000               0
199208310005               0
199208310010               0
199208310015               0
199208310020               0
199208310025               0
199208310030               0
199208310035               0
199208310040               0
199208310045               0
199208310050               0
199208310055               0
199208310100               0
199208310105               0
199208310110               0
199208310115               0
199208310120               0
199208310125               0
199208310130               0
199208310135               0
199208310140               0
199208310145               0
199208310150               0
199208310155               0
199208310200               0
199208310205               0
199208310210               0
199208310215               0
199208310220               0
199208310225               0
199208310230               0
199208310235               0
199208310240               0
199208310245               0
199208310250               0
199208310255               0
199208310300               0
199208310305               0
199208310310     5.16699e-09
199208310315     1.96011e-05
199208310320     0.000456205
199208310325      0.00363111
199208310330       0.0179475
199208310335       0.0629373
199208310340        0.156894
199208310345         0.33565
199208310350        0.591913
199208310355        0.858306
199208310400         1.06661
199208310405         1.18743
199208310410         1.30256
199208310415         1.46731
199208310420         1.61825
199208310425         1.76103
199208310430          1.8893
199208310435          2.0091
199208310440         2.12253
199208310445         2.21661
199208310450         2.30748
199208310455         2.39382
199208310500         2.47328
199208310505         2.55051
199208310510         2.62527
199208310515          2.6981
199208310520         2.76994
199208310525         2.84062
199208310530          2.9117
199208310535         2.98335
199208310540         3.05362
199208310545         3.12058
199208310550         3.18317
199208310555         3.24133
199208310600         3.29541
199208310605         3.34569
199208310610         3.39271
199208310615           3.437
199208310620         3.47855
199208310625         3.51758
199208310630         3.55443
199208310635         3.58932
199208310640         3.62237
199208310645         3.65398
199208310650         3.68413
199208310655         3.71285
199208310700         3.74043
199208310705         3.76686
199208310710         3.79225
199208310715         3.81667
199208310720         3.84021
199208310725         3.86304
199208310730          3.8851
199208310735         3.90621
199208310740         3.92686
199208310745         3.94695
199208310750         3.96623
199208310755         3.98508
199208310800         4.00338
199208310805         4.02109
199208310810          4.0383
199208310815         4.05509
199208310820         4.07141
199208310825         4.08731
199208310830         4.10279
199208310835         4.11785
199208310840         4.13254
199208310845         4.14686
199208310850         4.16088
199208310855         4.17444
199208310900         4.18776
199208310905         4.20073
199208310910         4.21331
199208310915         4.22563
199208310920         4.23772
199208310925         4.24941
199208310930         4.26088
199208310935         4.27208
199208310940         4.28289
199208310945         4.29357
199208310950         4.30395
199208310955         4.31397
199208311000         4.32383
199208311005          4.3336
199208311010         4.34293
199208311015         4.35202
199208311020         4.36121
199208311025         4.37001
199208311030         4.37855
199208311035         4.38677
199208311040         4.39499
199208311045         4.40309
199208311050         4.41069
199208311055         4.41827
199208311100         4.42574
199208311105         4.43288
199208311110         4.43983
199208311115         4.44675
199208311120         4.45343
199208311125          4.4598
199208311130         4.46604
199208311135         4.47235
199208311140         4.47848
199208311145         4.48427
199208311150         4.49008
199208311155         4.49577
199208311200         4.50119
199208311205         4.50652
199208311210         4.51174
199208311215         4.51673
199208311220         4.52162
199208311225         4.52658
199208311230          4.5312
199208311235         4.53568
199208311240         4.54022
199208311245         4.54458
199208311250         4.54877
199208311255         4.55289
199208311300         4.55696
199208311305         4.56082
199208311310         4.56463
199208311315         4.56838
199208311320         4.57196
199208311325         4.57549
199208311330          4.5789
199208311335         4.58232
199208311340          4.5855
199208311345         4.58869
199208311350         4.59184
199208311355         4.59478
199208311400         4.59772
199208311405         4.60059
199208311410         4.60332
199208311415         4.60606
199208311420         4.60866
199208311425         4.61128
199208311430         4.61378
199208311435         4.61616
199208311440          4.6186
199208311445         4.62086
199208311450         4.62309
199208311455         4.62531
199208311500         4.62746
199208311505         4.62958
199208311510         4.63156
199208311515         4.63353
199208311520         4.63553
199208311525         4.63739
199208311530         4.63919
199208311535           4.641
199208311540         4.64272
199208311545          4.6444
199208311550         4.64602
199208311555          4.6476
199208311600         4.64916
199208311605         4.65072
199208311610         4.65214
199208311615         4.65366
199208311620         4.65498
199208311625         4.65639
199208311630         4.65778
199208311635           4.659
199208311640         4.66031
199208311645         4.66157
199208311650          4.6627
199208311655         4.66393
199208311700         4.66499
199208311705          4.6661
199208311710         4.66725
199208311715          4.6683
199208311720         4.66931
199208311725         4.67032
199208311730         4.67129
199208311735         4.67222
199208311740         4.67316
199208311745         4.67407
199208311750         4.67489
199208311755         4.67577
199208311800         4.67661
199208311805         4.67737
199208311810         4.67816
199208311815         4.67894
199208311820         4.67966
199208311825         4.68043
199208311830         4.68104
199208311835         4.68174
199208311840          4.6823
199208311845         4.68314
199208311850         4.68379
199208311855         4.68438
199208311900         4.68502
199208311905          4.6856
199208311910         4.68618
199208311915         4.68674
199208311920         4.68723
199208311925         4.68783
199208311930          4.6883
199208311935         4.68882
199208311940         4.68928
199208311945         4.68979
199208311950         4.69021
199208311955         4.69064
199208312000         4.69104
199208312005         4.69159
199208312010         4.69193
199208312015         4.69228
199208312020         4.69266
199208312025         4.69314
199208312030         4.69356
199208312035         4.69389
199208312040         4.69426
199208312045         4.69459
199208312050         4.69501
199208312055         4.69529
199208312100          4.6956
199208312105         4.69587
199208312110         4.69618
199208312115         4.69652
199208312120         4.69676
199208312125         4.69709
199208312130         4.69736
199208312135         4.69761
199208312140         4.69787
199208312145         4.69813
199208312150         4.69837
199208312155         4.69861
199208312200         4.69877
199208312205          4.6991
199208312210         4.69929
199208312215         4.69952
199208312220          4.6997
199208312225         4.69993
199208312230         4.70016
199208312235         4.70029
199208312240         4.70051
199208312245         4.70066
199208312250         4.70089
199208312255         4.70101
199208312300         4.70119
199208312305         4.70139
199208312310         4.70152
199208312315         4.70168
199208312320         4.70184
199208312325         4.70198
199208312330         4.70213
199208312335         4.70228
199208312340         4.70238
199208312345         4.70245
199208312350         4.70265
199208312355         4.70278
199209010000         4.70287
199209010005         4.70298
199209010010          4.7031
199209010015         4.70315
199209010020         4.70339
199209010025         4.70348
199209010030         4.70357
199209010035         4.70371
199209010040         4.70383
199209010045         4.70387
199209010050         4.70394
199209010055         4.70404
199209010100         4.70418
199209010105         4.70428
199209010110         4.70437
199209010115         4.70445
199209010120         4.70454
199209010125         4.70461
199209010130         4.70469
199209010135         4.70474
199209010140         4.70481
199209010145         4.70481
199209010150         4.70491
199209010155         4.70502
199209010200         4.70503
199209010205         4.70508
199209010210         4.70514
199209010215         4.70528
199209010220          4.7053
199209010225         4.70538
199209010230         4.70538
199209010235         4.70536
199209010240         4.70558
199209010245         4.70562
199209010250         4.70564
199209010255         4.70574
199209010300         4.70577
199209010305         4.70583
199209010310         4.70589
199209010315         4.70593
199209010320         4.70594
199209010325           4.706
199209010330           4.706
199209010335         4.70603
199209010340         4.70608
199209010345         4.70615
199209010350         4.70617
199209010355         4.70617
199209010400         4.70618
199209010405         4.70613
199209010410         4.70632
199209010415         4.70629
199209010420         4.70631
199209010425          4.7064
199209010430         4.70644
199209010435         4.70648
199209010440         4.70648
199209010445          4.7065
199209010450          4.7065
199209010455         4.70658
199209010500          4.7066
199209010505         4.70659
199209010510         4.70665
199209010515         4.70666
199209010520          4.7067
199209010525          4.7067
199209010530          4.7067
199209010535         4.70678
199209010540         4.70671
199209010545         4.70675
199209010550         4.70681
199209010555          4.7068
199209010600         4.70684
199209010605         4.70687
199209010610         4.70689
199209010615         4.70691
199209010620          4.7069
199209010625         4.70696
199209010630         4.70695
199209010635         4.70695
199209010640         4.70699
199209010645         4.70699
199209010650         4.70702
199209010655         4.70701
199209010700         4.70705
199209010705         4.70702
199209010710         4.70704
199209010715          4.7071
199209010720         4.70708
199209010725         4.70709
199209010730          4.7071
199209010735         4.70707
199209010740         4.70714
199209010745         4.70715
199209010750         4.70713
199209010755         4.70716
199209010800         4.70717
199209010805         4.70717
199209010810         4.70718
199209010815         4.70719
199209010820         4.70717
199209010825         4.70718
199209010830         4.70724
199209010835          4.7072
199209010840         4.70724
199209010845         4.70723
199209010850         4.70726
199209010855         4.70725
199209010900         4.70726
199209010905         4.70727
199209010910         4.70728
199209010915         4.70728
199209010920         4.70725
199209010925         4.70725
199209010930         4.70728
199209010935         4.70719
199209010940         4.70733
199209010945         4.70729
199209010950         4.70726
199209010955         4.70724
199209011000         4.70722
199209011005         4.70739
199209011010         4.70732
199209011015         4.70735
199209011020         4.70735
199209011025         4.70734
199209011030         4.70739
199209011035         4.70735
199209011040         4.70738
199209011045         4.70739
199209011050         4.70736
199209011055         4.70737
199209011100         4.70737
199209011105         4.70728
199209011110         4.70735
199209011115         4.70742
199209011120         4.70737
199209011125         4.70739
199209011130         4.70742
199209011135         4.70739
199209011140         4.70733
199209011145         4.70743
199209011150         4.70736
199209011155         4.70738
199209011200         4.70736
199209011205         4.70741
199209011210         4.70741
199209011215         4.70737
199209011220         4.70748
199209011225         4.70737
199209011230          4.7074
199209011235         4.70749
199209011240         4.70743
199209011245         4.70746
199209011250         4.70747
199209011255         4.70746
199209011300         4.70746
199209011305         4.70747
199209011310         4.70747
199209011315         4.70747
199209011320         4.70743
199209011325         4.70749
199209011330         4.70741
199209011335         4.70744
199209011340         4.70749
199209011345         4.70744
199209011350         4.70746
199209011355         4.70748
199209011400         4.70747
199209011405         4.70748
199209011410         4.70748
199209011415         4.70747
199209011420         4.70748
199209011425         4.70746
199209011430         4.70745
199209011435         4.70738
199209011440          4.7075
199209011445         4.70743
199209011450         4.70736
199209011455          4.7074
199209011500         4.70746
199209011505         4.70749
199209011510         4.70749
199209011515         4.70748
199209011520         4.70747
199209011525         4.70748
199209011530         4.70754
199209011535         4.70748
199209011540         4.70752
199209011545         4.70749
199209011550          4.7075
199209011555         4.70746
199209011600         4.70753
199209011605         4.70751
199209011610         4.70748
199209011615         4.70748
199209011620         4.70747
199209011625          4.7074
199209011630         4.70746
199209011635          4.7075
199209011640         4.70746
199209011645         4.70747
199209011650         4.70742
199209011655         4.70748
199209011700         4.70754
199209011705         4.70747
199209011710         4.70749
199209011715         4.70743
199209011720         4.70746
199209011725         4.70752
199209011730         4.70751
199209011735         4.70746
199209011740          4.7075
199209011745         4.70756
199209011750         4.70751
199209011755         4.70753
199209011800         4.70754
199209011805         4.70752
199209011810         4.70753
199209011815          4.7075
199209011820         4.70751
199209011825          4.7075
199209011830         4.70745
199209011835          4.7075
199209011840         4.70745
199209011845         4.70744
199209011850         4.70751
199209011855         4.70748
199209011900         4.70752
199209011905         4.70743
199209011910         4.70743
199209011915         4.70758
199209011920         4.70751
199209011925         4.70751
199209011930         4.70753
199209011935         4.70752
199209011940         4.70747
199209011945         4.70749
199209011950         4.70756
199209011955          4.7075
199209012000         4.70751
199209012005         4.70755
199209012010         4.70749
199209012015         4.70749
199209012020         4.70748
199209012025         4.70742
199209012030          4.7075
199209012035         4.70754
199209012040         4.70751
199209012045         4.70753
199209012050         4.70754
199209012055         4.70754
199209012100         4.70753
199209012105         4.70748
199209012110         4.70743
199209012115          4.7075
199209012120         4.70751
199209012125         4.70748
199209012130          4.7075
199209012135         4.70755
199209012140         4.70752
199209012145         4.70754
199209012150         4.70753
199209012155         4.70755
199209012200         4.70754
199209012205         4.70752
199209012210          4.7075
199209012215         4.70745
199209012220         4.70754
199209012225         4.70748
199209012230          4.7074
199209012235         4.70745
199209012240         4.70754
199209012245          4.7075
199209012250         4.70752
199209012255         4.70755
199209012300         4.70749
199209012305         4.70749
199209012310          4.7075
199209012315          4.7074
199209012320         4.70747
199209012325         4.70753
199209012330         4.70753
199209012335         4.70751
199209012340         4.70754
199209012345         4.70755
199209012350         4.70756
199209012355         4.70754
199209020000         4.70754
199209020005         4.70753
199209020010         4.70749
199209020015          4.7075
199209020020         4.70752
199209020025         4.70752
199209020030         4.70745
199209020035         4.70746
199209020040         4.70754
199209020045          4.7074
199209020050         4.70741
199209020055         4.70754
199209020100         4.70747
199209020105         4.70753
199209020110         4.70755
199209020115         4.70753
199209020120         4.70755
199209020125         4.70754
199209020130         4.70755
199209020135         4.70755
199209020140         4.70754
199209020145         4.70752
199209020150         4.70753
199209020155         4.70752
199209020200         4.70751
199209020205         4.70748
199209020210         4.70755
199209020215         4.70751
199209020220         4.70753
199209020225         4.70754
199209020230         4.70754
199209020235         4.70753
199209020240         4.70754
199209020245         4.70752
199209020250         4.70751
199209020255         4.70749
199209020300         4.70756
199209020305          4.7075
199209020310         4.70754
199209020315         4.70752
199209020320         4.70753
199209020325         4.70753
199209020330         4.70751
199209020335         4.70751
199209020340         4.70747
199209020345         4.70737
199209020350          4.7075
199209020355         4.70752
199209020400         4.70749
199209020405         4.70752
199209020410          4.7075
199209020415         4.70754
199209020420         4.70749
199209020425         4.70748
199209020430         4.70751
199209020435         4.70746
199209020440         4.70753
199209020445         4.70747
199209020450         4.70749
199209020455         4.70744
199209020500         4.70749
199209020505         4.70753
199209020510         4.70751
199209020515         4.70746
199209020520         4.70745
199209020525         4.70753
199209020530         4.70742
199209020535         4.70737
199209020540         4.70754
199209020545         4.70748
199209020550         4.70746
199209020555         4.70752
199209020600         4.70753
199209020605         4.70751
199209020610         4.70752
199209020615         4.70757
199209020620         4.70747
199209020625         4.70747
199209020630         4.70751
199209020635         4.70751
199209020640         4.70751
199209020645         4.70743
199209020650         4.70755
199209020655         4.70753
199209020700         4.70746
199209020705         4.70754
199209020710         4.70756
199209020715          4.7075
199209020720         4.70744
199209020725         4.70748
199209020730         4.70749
199209020735         4.70743
199209020740         4.70749
199209020745         4.70753
199209020750         4.70753
199209020755         4.70753
199209020800         4.70751
199209020805         4.70757
199209020810         4.70755
199209020815         4.70753
199209020820         4.70757
199209020825         4.70754
199209020830         4.70753
199209020835         4.70746
199209020840         4.70753
199209020845         4.70753
199209020850          4.7075
199209020855         4.70758
199209020900         4.70752
199209020905         4.70756
199209020910         4.70755
199209020915         4.70756
199209020920         4.70754
199209020925         4.70751
199209020930         4.70753
199209020935         4.70751
199209020940         4.70745
199209020945         4.70758
199209020950         4.70752
199209020955         4.70749
199209021000         4.70752
199209021005         4.70742
199209021010         4.70746
199209021015         4.70754
199209021020         4.70754
199209021025         4.70754
199209021030         4.70754
199209021035         4.70755
199209021040         4.70749
199209021045         4.70742
199209021050         4.70745
199209021055         4.70756
199209021100         4.70748
199209021105          4.7075
199209021110         4.70743
199209021115          4.7075
199209021120         4.70755
199209021125         4.70754
199209021130         4.70755
199209021135         4.70752
199209021140          4.7075
199209021145         4.70749
199209021150         4.70757
199209021155         4.70751
199209021200         4.70752
199209021205         4.70746
199209021210         4.70742
199209021215         4.70754
199209021220         4.70749
199209021225         4.70752
199209021230         4.70751
199209021235         4.70751
199209021240         4.70757
199209021245          4.7075
199209021250         4.70752
199209021255         4.70756
199209021300         4.70752
199209021305         4.70756
199209021310         4.70752
199209021315         4.70752
199209021320         4.70755
199209021325         4.70755
199209021330         4.70754
199209021335         4.70751
199209021340         4.70752
199209021345         4.70752
199209021350         4.70757
199209021355         4.70752
199209021400         4.70753
199209021405         4.70756
199209021410         4.70751
199209021415         4.70754
199209021420         4.70751
199209021425         4.70749
199209021430          4.7075
199209021435         4.70751
199209021440         4.70748
199209021445         4.70741
199209021450         4.70747
199209021455         4.70751
199209021500         4.70743
199209021505         4.70753
199209021510         4.70755
199209021515         4.70753
199209021520         4.70755
199209021525         4.70751
199209021530         4.70746
199209021535         4.70755
199209021540         4.70756
199209021545          4.7075
199209021550         4.70753
199209021555         4.70755
199209021600         4.70752
199209021605         4.70752
199209021610         4.70755
199209021615         4.70755
199209021620         4.70752
199209021625         4.70755
199209021630         4.70754
199209021635         4.70749
199209021640         4.70749
199209021645         4.70741
199209021650         4.70755
199209021655         4.70753
199209021700         4.70749
199209021705         4.70754
199209021710         4.70749
199209021715         4.70745
199209021720         4.70744
199209021725          4.7075
199209021730         4.70747
199209021735         4.70753
199209021740         4.70754
199209021745         4.70753
199209021750         4.70756
199209021755         4.70755
199209021800         4.70755
199209021805         4.70754
199209021810         4.70755
199209021815         4.70753
199209021820         4.70752
199209021825          4.7075
199209021830         4.70754
199209021835         4.70752
199209021840          4.7075
199209021845         4.70752
199209021850         4.70746
199209021855          4.7075
199209021900          4.7075
199209021905          4.7075
199209021910         4.70747
199209021915         4.70748
199209021920         4.70745
199209021925         4.70747
199209021930         4.70755
199209021935         4.70752
199209021940         4.70755
199209021945         4.70751
199209021950         4.70756
199209021955         4.70755
199209022000         4.70752
199209022005         4.70748
199209022010         4.70743
199209022015         4.70749
199209022020          4.7075
199209022025         4.70749
199209022030         4.70755
199209022035         4.70751
199209022040         4.70751
199209022045         4.70754
199209022050         4.70756
199209022055         4.70752
199209022100         4.70756
199209022105         4.70753
199209022110         4.70755
199209022115         4.70754
199209022120         4.70754
199209022125         4.70753
199209022130         4.70755
199209022135         4.70752
199209022140         4.70754
199209022145         4.70753
199209022150         4.70752
199209022155         4.70748
199209022200         4.70743
199209022205         4.70745
199209022210          4.7075
199209022215         4.70748
199209022220         4.70749
199209022225         4.70751
199209022230          4.7075
199209022235          4.7075
199209022240         4.70751
199209022245         4.70755
199209022250         4.70751
199209022255         4.70755
199209022300         4.70749
199209022305         4.70751
199209022310         4.70754
199209022315          4.7075
199209022320         4.70741
199209022325         4.70749
199209022330         4.70755
199209022335         4.70746
199209022340         4.70749
199209022345         4.70749
199209022350          4.7074
199209022355          4.7075
199209030000         4.70756
199209030005         4.70751
199209030010         4.70754
199209030015         4.70755
199209030020         4.70754
199209030025         4.70755
199209030030         4.70748
199209030035         4.70751
199209030040         4.70748
199209030045         4.70746
199209030050         4.70754
199209030055         4.70753
199209030100         4.70753
199209030105         4.70753
199209030110         4.70751
199209030115         4.70755
199209030120         4.70749
199209030125         4.70753
199209030130         4.70754
199209030135         4.70749
199209030140         4.70753
199209030145         4.70747
199209030150         4.70748
199209030155         4.70754
199209030200         4.70743
199209030205         4.70742
199209030210         4.70754
199209030215         4.70745
199209030220         4.70752
199209030225         4.70751
199209030230         4.70751
199209030235         4.70757
199209030240         4.70751
199209030245         4.70752
199209030250         4.70755
199209030255         4.70745
199209030300         4.70751
199209030305         4.70756
199209030310          4.7075
199209030315         4.70753
199209030320         4.70747
199209030325         4.70749
199209030330         4.70759
199209030335         4.70752
199209030340         4.70751
199209030345         4.70751
199209030350         4.70744
199209030355         4.70748
199209030400         4.70754
199209030405         4.70751
199209030410         4.70754
199209030415         4.70754
199209030420         4.70754
199209030425         4.70753
199209030430         4.70753
199209030435         4.70752
199209030440         4.70756
199209030445         4.70752
199209030450          4.7075
199209030455         4.70742
199209030500         4.70748
199209030505         4.70754
199209030510         4.70751
199209030515         4.70754
199209030520         4.70753
199209030525         4.70754
199209030530         4.70752
199209030535         4.70755
199209030540         4.70753
199209030545         4.70755
199209030550         4.70753
199209030555         4.70753
199209030600         4.70755
199209030605         4.70749
199209030610         4.70753
199209030615         4.70749
199209030620         4.70753
199209030625         4.70753
199209030630         4.70749
199209030635         4.70751
199209030640         4.70751
199209030645         4.70744
199209030650         4.70753
199209030655         4.70751
199209030700         4.70747
199209030705         4.70744
199209030710         4.70751
199209030715         4.70752
199209030720         4.70749
199209030725         4.70752
199209030730         4.70755
199209030735         4.70751
199209030740         4.70751
199209030745         4.70747
199209030750         4.70746
199209030755         4.70759
199209030800          4.7075
199209030805         4.70752
199209030810         4.70748
199209030815         4.70751
199209030820         4.70757
199209030825         4.70752
199209030830         4.70754
199209030835         4.70755
199209030840         4.70752
199209030845         4.70754
199209030850         4.70746
199209030855          4.7075
199209030900         4.70747
199209030905         4.70745
199209030910         4.70746
199209030915         4.70746
199209030920         4.70754
199209030925         4.70747
199209030930         4.70746
199209030935         4.70739
199209030940         4.70753
199209030945         4.70754
199209030950          4.7075
199209030955         4.70754
199209031000         4.70742
199209031005         4.70743
199209031010         4.70757
199209031015         4.70746
199209031020         4.70742
199209031025          4.7075
199209031030         4.70755
199209031035         4.70754
199209031040         4.70751
199209031045         4.70754
199209031050         4.70754
199209031055         4.70749
199209031100         4.70746
199209031105         4.70745
199209031110          4.7076
199209031115         4.70747
199209031120         4.70743
199209031125         4.70751
199209031130         4.70759
199209031135         4.70752
199209031140         4.70756
199209031145         4.70756
199209031150         4.70752
199209031155         4.70754
199209031200         4.70756
199209031205         4.70753
199209031210         4.70755
199209031215         4.70749
199209031220         4.70747
199209031225         4.70746
199209031230         4.70752
199209031235         4.70754
199209031240         4.70752
199209031245         4.70751
199209031250         4.70753
199209031255         4.70754
199209031300         4.70757
199209031305         4.70753
199209031310         4.70755
199209031315         4.70753
199209031320         4.70754
199209031325         4.70752
199209031330         4.70748
199209031335         4.70746
199209031340         4.70757
199209031345         4.70751
199209031350         4.70751
199209031355          4.7075
199209031400         4.70756
199209031405         4.70753
199209031410         4.70753
199209031415         4.70753
199209031420          4.7075
199209031425         4.70742
199209031430         4.70752
199209031435          4.7075
199209031440         4.70748
199209031445         4.70749
199209031450         4.70742
199209031455         4.70754
199209031500         4.70753
199209031505         4.70751
199209031510         4.70748
199209031515         4.70752
199209031520         4.70756
199209031525         4.70748
199209031530         4.70755
199209031535         4.70753
199209031540          4.7075
199209031545         4.70743
199209031550         4.70753
199209031555         4.70752
199209031600         4.70751
199209031605         4.70755
199209031610         4.70754
199209031615         4.70754
199209031620         4.70753
199209031625         4.70756
199209031630         4.70755
199209031635         4.70753
199209031640         4.70755
199209031645         4.70754
199209031650         4.70753
199209031655         4.70755
199209031700         4.70752
199209031705          4.7075
199209031710         4.70749
199209031715         4.70751
199209031720         4.70742
199209031725         4.70755
199209031730         4.70751
199209031735         4.70752
199209031740         4.70749
199209031745         4.70745
199209031750         4.70752
199209031755         4.70752
199209031800         4.70752
199209031805         4.70752
199209031810         4.70754
199209031815         4.70753
199209031820         4.70755
199209031825         4.70752
199209031830          4.7075
199209031835         4.70743
199209031840         4.70752
199209031845         4.70752
199209031850         4.70748
199209031855         4.70754
199209031900         4.70753
199209031905         4.70754
199209031910         4.70755
199209031915         4.70752
199209031920         4.70752
199209031925         4.70745
199209031930         4.70748
199209031935         4.70751
199209031940         4.70752
199209031945         4.70753
199209031950         4.70751
199209031955         4.70755
199209032000         4.70753
199209032005         4.70753
199209032010         4.70753
199209032015         4.70751
199209032020         4.70741
199209032025         4.70752
199209032030         4.70752
199209032035         4.70744
199209032040          4.7075
199209032045         4.70752
199209032050         4.70748
199209032055         4.70749
199209032100         4.70756
199209032105         4.70746
199209032110         4.70749
199209032115         4.70752
199209032120         4.70751
199209032125         4.70748
199209032130         4.70745
199209032135         4.70757
199209032140         4.70753
199209032145         4.70753
199209032150         4.70755
199209032155         4.70754
199209032200         4.70756
199209032205         4.70753
199209032210         4.70755
199209032215         4.70753
199209032220         4.70752
199209032225         4.70753
199209032230         4.70755
199209032235          4.7075
199209032240         4.70753
199209032245         4.70752
199209032250         4.70747
199209032255         4.70746
199209032300         4.70754
199209032305          4.7075
199209032310         4.70748
199209032315          4.7075
199209032320         4.70753
199209032325         4.70752
199209032330         4.70749
199209032335         4.70756
199209032340         4.70751
199209032345         4.70754
199209032350         4.70749
199209032355         4.70751
199209040000         4.70744
199209040005         4.70745
199209040010         4.70753
199209040015         4.70751
199209040020          4.7075
199209040025         4.70751
199209040030         4.70754
199209040035         4.70749
199209040040         4.70753
199209040045         4.70756
199209040050         4.70752
199209040055         4.70753
199209040100         4.70754
199209040105         4.70751
199209040110         4.70753
199209040115         4.70755
199209040120         4.70751
199209040125         4.70754
199209040130         4.70751
199209040135         4.70754
199209040140         4.70752
199209040145         4.70751
199209040150         4.70752
199209040155         4.70745
199209040200         4.70749
199209040205         4.70752
199209040210         4.70742
199209040215         4.70741
199209040220         4.70753
199209040225         4.70752
199209040230          4.7075
199209040235         4.70753
199209040240          4.7075
199209040245         4.70756
199209040250         4.70755
199209040255         4.70751
199209040300         4.70751
199209040305         4.70744
199209040310          4.7075
199209040315         4.70755
199209040320         4.70751
199209040325         4.70753
199209040330         4.70754
199209040335         4.70751
199209040340         4.70755
199209040345         4.70755
199209040350         4.70751
199209040355         4.70755
199209040400         4.70753
199209040405         4.70752
199209040410         4.70752
199209040415         4.70751
199209040420         4.70753
199209040425         4.70746
199209040430         4.70753
199209040435         4.70748
199209040440         4.70752
199209040445         4.70747
199209040450         4.70743
199209040455         4.70748
199209040500         4.70748
199209040505         4.70751
199209040510         4.70748
199209040515         4.70746
199209040520         4.70757
199209040525         4.70751
199209040530         4.70755
199209040535         4.70751
199209040540          4.7075
199209040545         4.70755
199209040550         4.70752
199209040555         4.70746
199209040600         4.70749
199209040605         4.70757
199209040610         4.70752
199209040615         4.70752
199209040620         4.70752
199209040625         4.70753
199209040630         4.70751
199209040635         4.70753
199209040640         4.70753
199209040645         4.70749
199209040650         4.70755
199209040655         4.70749
199209040700         4.70751
199209040705         4.70753
199209040710          4.7075
199209040715         4.70753
199209040720          4.7075
199209040725         4.70746
199209040730         4.70751
199209040735         4.70751
199209040740         4.70739
199209040745          4.7075
199209040750         4.70753
199209040755         4.70748
199209040800         4.70754
199209040805         4.70752
199209040810         4.70754
199209040815         4.70746
199209040820         4.70749
199209040825         4.70755
199209040830         4.70754
199209040835         4.70752
199209040840         4.70753
199209040845         4.70753
199209040850         4.70753
199209040855         4.70751
199209040900          4.7075
199209040905         4.70755
199209040910         4.70751
199209040915         4.70754
199209040920         4.70749
199209040925         4.70753
199209040930         4.70747
199209040935         4.70744
199209040940          4.7075
199209040945         4.70748
199209040950          4.7075
199209040955         4.70746
199209041000         4.70753
199209041005          4.7075
199209041010         4.70747
199209041015         4.70753
199209041020          4.7074
199209041025         4.70745
199209041030         4.70753
199209041035         4.70752
199209041040         4.70753
199209041045         4.70752
199209041050         4.70754
199209041055         4.70756
199209041100         4.70756
199209041105         4.70754
199209041110         4.70756
199209041115         4.70753
199209041120         4.70749
199209041125         4.70744
199209041130         4.70752
199209041135         4.70749
199209041140         4.70741
199209041145         4.70749
199209041150         4.70754
199209041155         4.70752
199209041200         4.70753
199209041205         4.70754
199209041210         4.70755
199209041215         4.70755
199209041220         4.70755
199209041225         4.70754
199209041230          4.7075
199209041235         4.70745
199209041240          4.7075
199209041245         4.70755
199209041250         4.70749
199209041255         4.70755
199209041300         4.70752
199209041305         4.70754
199209041310         4.70755
199209041315         4.70752
199209041320         4.70755
199209041325         4.70751
199209041330         4.70754
199209041335         4.70752
199209041340         4.70755
199209041345         4.70752
199209041350         4.70751
199209041355         4.70755
199209041400         4.70751
199209041405         4.70747
199209041410         4.70749
199209041415         4.70742
199209041420         4.70751
199209041425         4.70751
199209041430         4.70752
199209041435         4.70753
199209041440         4.70753
199209041445         4.70754
199209041450         4.70752
199209041455         4.70753
199209041500         4.70751
199209041505         4.70753
199209041510          4.7075
199209041515         4.70751
199209041520         4.70752
199209041525         4.70752
199209041530         4.70755
199209041535         4.70751
199209041540         4.70754
199209041545         4.70752
199209041550         4.70752
199209041555         4.70755
199209041600         4.70751
199209041605         4.70754
199209041610         4.70751
199209041615         4.70753
199209041620         4.70753
199209041625         4.70751
199209041630         4.70755
199209041635         4.70751
199209041640         4.70751
199209041645         4.70745
199209041650         4.70745
199209041655         4.70746
199209041700         4.70751
199209041705         4.70747
199209041710         4.70751
199209041715         4.70751
199209041720         4.70753
199209041725         4.70753
199209041730         4.70752
199209041735         4.70757
199209041740         4.70752
199209041745         4.70752
199209041750         4.70755
199209041755         4.70753
199209041800         4.70752
199209041805         4.70752
199209041810         4.70751
199209041815         4.70752
199209041820         4.70751
199209041825         4.70754
199209041830         4.70751
199209041835         4.70752
199209041840         4.70753
199209041845         4.70751
199209041850         4.70753
199209041855          4.7075
199209041900         4.70754
199209041905         4.70749
199209041910         4.70752
199209041915          4.7075
199209041920         4.70743
199209041925         4.70744
199209041930         4.70755
199209041935         4.70748
199209041940         4.70749
199209041945         4.70743
199209041950         4.70753
199209041955         4.70753
199209042000          4.7075
199209042005         4.70747
199209042010         4.70754
199209042015         4.70753
199209042020         4.70748
199209042025          4.7075
199209042030         4.70743
199209042035         4.70749
199209042040          4.7075
199209042045         4.70749
199209042050         4.70753
199209042055         4.70748
199209042100         4.70753
199209042105         4.70754
199209042110         4.70753
199209042115          4.7075
199209042120         4.70755
199209042125         4.70751
199209042130         4.70754
199209042135         4.70754
199209042140         4.70752
199209042145         4.70755
199209042150         4.70751
199209042155         4.70752
199209042200         4.70756
199209042205         4.70751
199209042210         4.70753
199209042215         4.70753
199209042220          4.7075
199209042225         4.70752
199209042230         4.70748
199209042235         4.70752
199209042240         4.70752
199209042245          4.7075
199209042250         4.70753
199209042255         4.70752
199209042300         4.70752
199209042305         4.70755
199209042310         4.70749
199209042315         4.70751
199209042320         4.70754
199209042325          4.7075
199209042330         4.70751
199209042335         4.70752
199209042340         4.70752
199209042345         4.70753
199209042350          4.7075
199209042355          4.7075
199209050000         4.70744
199209050005         4.70754
199209050010         4.70749
199209050015         4.70743
199209050020         4.70748
199209050025          4.7075
199209050030         4.70746
199209050035         4.70755
199209050040         4.70749
199209050045          4.7075
199209050050         4.70749
199209050055          4.7075
199209050100         4.70755
199209050105         4.70752
199209050110         4.70752
199209050115         4.70746
199209050120         4.70745
199209050125         4.70749
199209050130         4.70751
199209050135         4.70747
199209050140         4.70749
199209050145         4.70744
199209050150          4.7074
199209050155         4.70759
199209050200         4.70751
199209050205         4.70753
199209050210         4.70756
199209050215         4.70753
199209050220         4.70756
199209050225         4.70754
199209050230         4.70752
199209050235         4.70752
199209050240         4.70749
199209050245         4.70755
199209050250         4.70745
199209050255         4.70744
199209050300          4.7075
199209050305         4.70752
199209050310          4.7075
199209050315         4.70749
199209050320         4.70745
199209050325         4.70746
199209050330         4.70751
199209050335         4.70752
199209050340         4.70752
199209050345          4.7075
199209050350         4.70741
199209050355         4.70745
199209050400         4.70759
199209050405         4.70749
199209050410         4.70753
199209050415         4.70755
199209050420         4.70753
199209050425         4.70751
199209050430          4.7075
199209050435         4.70756
199209050440         4.70746
199209050445         4.70752
199209050450         4.70748
199209050455         4.70747
199209050500         4.70754
199209050505         4.70749
199209050510         4.70756
199209050515         4.70755
199209050520         4.70753
199209050525         4.70753
199209050530         4.70749
199209050535         4.70742
199209050540         4.70753
199209050545         4.70752
199209050550         4.70752
199209050555          4.7075
199209050600         4.70756
199209050605         4.70753
199209050610         4.70754
199209050615         4.70751
199209050620         4.70753
199209050625         4.70755
199209050630          4.7075
199209050635         4.70753
199209050640         4.70755
199209050645          4.7075
199209050650         4.70755
199209050655         4.70752
199209050700         4.70751
199209050705         4.70754
199209050710         4.70754
199209050715         4.70753
199209050720         4.70753
199209050725         4.70752
199209050730         4.70752
199209050735         4.70752
199209050740         4.70755
199209050745          4.7075
199209050750         4.70753
199209050755         4.70755
199209050800         4.70749
199209050805          4.7075
199209050810         4.70746
199209050815         4.70745
199209050820         4.70755
199209050825         4.70745
199209050830         4.70748
199209050835         4.70749
199209050840         4.70754
199209050845         4.70754
199209050850         4.70752
199209050855          4.7075
199209050900         4.70747
199209050905         4.70754
199209050910         4.70742
199209050915         4.70753
199209050920         4.70753
199209050925         4.70751
199209050930         4.70752
199209050935         4.70746
199209050940         4.70753
199209050945         4.70756
199209050950         4.70752
199209050955         4.70753
199209051000         4.70755
199209051005         4.70751
199209051010         4.70752
199209051015         4.70746
199209051020         4.70747
199209051025         4.70746
199209051030         4.70746
199209051035         4.70755
199209051040         4.70749
199209051045         4.70754
199209051050         4.70746
199209051055         4.70753
199209051100         4.70754
199209051105         4.70749
199209051110         4.70755
199209051115         4.70754
199209051120         4.70755
199209051125         4.70752
199209051130         4.70755
199209051135         4.70752
199209051140         4.70753
199209051145         4.70752
199209051150         4.70745
199209051155          4.7075
199209051200         4.70743
199209051205         4.70751
199209051210         4.70749
199209051215          4.7075
199209051220         4.70751
199209051225          4.7075
199209051230         4.70753
199209051235         4.70752
199209051240         4.70755
199209051245         4.70751
199209051250         4.70749
199209051255         4.70755
199209051300         4.70746
199209051305         4.70752
199209051310         4.70749
199209051315         4.70746
199209051320         4.70753
199209051325         4.70751
199209051330         4.70753
199209051335         4.70754
199209051340         4.70753
199209051345         4.70752
199209051350         4.70754
199209051355         4.70751
199209051400         4.70753
199209051405         4.70746
199209051410         4.70754
199209051415         4.70751
199209051420          4.7075
199209051425         4.70751
199209051430         4.70754
199209051435         4.70752
199209051440         4.70755
199209051445         4.70751
199209051450         4.70755
199209051455         4.70752
199209051500         4.70749
199209051505         4.70751
199209051510         4.70755
199209051515         4.70751
199209051520         4.70753
199209051525         4.70753
199209051530         4.70754
199209051535         4.70751
199209051540          4.7075
199209051545         4.70744
199209051550         4.70755
199209051555          4.7075
199209051600         4.70753
199209051605         4.70754
199209051610         4.70752
199209051615         4.70754
199209051620         4.70754
199209051625         4.70754
199209051630         4.70752
199209051635         4.70752
199209051640         4.70751
199209051645         4.70749
199209051650         4.70745
199209051655         4.70755
199209051700         4.70749
199209051705         4.70746
199209051710         4.70753
199209051715         4.70749
199209051720         4.70752
199209051725          4.7075
199209051730         4.70745
199209051735         4.70752
199209051740         4.70753
199209051745         4.70747
199209051750         4.70752
199209051755         4.70748
199209051800         4.70753
199209051805          4.7075
199209051810         4.70745
199209051815         4.70753
199209051820          4.7075
199209051825         4.70745
199209051830          4.7075
199209051835         4.70751
199209051840         4.70754
199209051845         4.70749
199209051850         4.70751
199209051855         4.70755
199209051900         4.70752
199209051905         4.70755
199209051910         4.70749
199209051915         4.70751
199209051920          4.7075
199209051925         4.70748
199209051930         4.70753
199209051935         4.70751
199209051940         4.70749
199209051945         4.70754
199209051950         4.70752
199209051955         4.70753
199209052000          4.7075
199209052005         4.70745
199209052010         4.70749
199209052015         4.70753
199209052020         4.70752
199209052025         4.70752
199209052030         4.70754
199209052035         4.70753
199209052040         4.70754
199209052045         4.70755
199209052050         4.70752
199209052055         4.70749
199209052100         4.70749
199209052105         4.70757
199209052110         4.70751
199209052115         4.70754
199209052120         4.70751
199209052125         4.70748
199209052130         4.70745
199209052135         4.70752
199209052140         4.70748
199209052145         4.70738
199209052150         4.70752
199209052155         4.70751
199209052200         4.70747
199209052205         4.70756
199209052210          4.7075
199209052215         4.70744
199209052220         4.70755
199209052225         4.70756
199209052230         4.70752
199209052235         4.70754
199209052240         4.70754
199209052245         4.70749
199209052250         4.70754
199209052255         4.70754
199209052300         4.70749
199209052305         4.70752
199209052310         4.70755
199209052315         4.70752
199209052320         4.70753
199209052325         4.70755
199209052330          4.7075
199209052335         4.70754
199209052340         4.70753
199209052345         4.70748
199209052350          4.7075
199209052355         4.70749
199209060000         4.70747
199209060005         4.70745
199209060010         4.70754
199209060015         4.70746
199209060020          4.7075
199209060025         4.70746
199209060030         4.70754
199209060035         4.70752
199209060040         4.70751
199209060045         4.70753
199209060050         4.70752
199209060055         4.70752
199209060100         4.70753
199209060105         4.70744
199209060110         4.70743
199209060115         4.70754
199209060120          4.7075
199209060125         4.70749
199209060130         4.70752
199209060135         4.70757
199209060140         4.70751
199209060145          4.7075
199209060150         4.70743
199209060155         4.70753
199209060200          4.7075
199209060205         4.70749
199209060210         4.70752
199209060215         4.70752
199209060220         4.70754
199209060225         4.70751
199209060230         4.70752
199209060235         4.70756
199209060240         4.70752
199209060245          4.7075
199209060250          4.7074
199209060255         4.70749
199209060300         4.70758
199209060305         4.70749
199209060310         4.70752
199209060315         4.70749
199209060320         4.70755
199209060325         4.70752
199209060330         4.70752
199209060335          4.7075
199209060340         4.70739
199209060345         4.70741
199209060350         4.70748
199209060355         4.70751
199209060400         4.70754
199209060405         4.70752
199209060410         4.70751
199209060415         4.70745
199209060420         4.70739
199209060425         4.70755
199209060430         4.70752
199209060435         4.70749
199209060440         4.70752
199209060445         4.70757
199209060450          4.7075
199209060455         4.70754
199209060500         4.70757
199209060505         4.70754
199209060510         4.70752
199209060515         4.70758
199209060520         4.70753
199209060525         4.70756
199209060530         4.70753
199209060535         4.70753
199209060540         4.70748
199209060545         4.70754
199209060550         4.70755
199209060555         4.70753
199209060600         4.70752
199209060605         4.70753
199209060610         4.70749
199209060615         4.70743
199209060620         4.70755
199209060625         4.70754
199209060630         4.70752
199209060635         4.70751
199209060640         4.70746
199209060645         4.70747
199209060650         4.70753
199209060655         4.70743
199209060700         4.70746
199209060705         4.70751
199209060710         4.70749
199209060715         4.70746
199209060720         4.70749
199209060725         4.70743
199209060730         4.70755
199209060735         4.70746
199209060740          4.7075
199209060745         4.70754
199209060750         4.70751
199209060755         4.70756
199209060800         4.70756
199209060805         4.70753
199209060810         4.70755
199209060815         4.70757
199209060820         4.70754
199209060825         4.70754
199209060830         4.70756
199209060835         4.70753
199209060840         4.70754
199209060845         4.70753
199209060850         4.70755
199209060855         4.70749
199209060900         4.70755
199209060905         4.70752
199209060910         4.70747
199209060915          4.7075
199209060920         4.70755
199209060925         4.70746
199209060930         4.70742
199209060935         4.70747
199209060940         4.70752
199209060945         4.70752
199209060950         4.70747
199209060955         4.70754
199209061000         4.70753
199209061005         4.70752
199209061010         4.70752
199209061015         4.70744
199209061020         4.70742
199209061025         4.70751
199209061030          4.7075
199209061035         4.70745
199209061040         4.70755
199209061045         4.70743
199209061050          4.7075
199209061055         4.70755
199209061100         4.70755
199209061105         4.70754
199209061110         4.70756
199209061115         4.70755
199209061120         4.70757
199209061125         4.70753
199209061130         4.70756
199209061135         4.70752
199209061140         4.70751
199209061145          4.7075
199209061150         4.70747
199209061155         4.70758
199209061200         4.70751
199209061205         4.70752
199209061210         4.70754
199209061215         4.70749
199209061220         4.70753
199209061225         4.70749
199209061230          4.7075
199209061235         4.70748
199209061240         4.70748
199209061245         4.70753
199209061250          4.7075
199209061255         4.70753
199209061300         4.70755
199209061305         4.70754
199209061310         4.70755
199209061315         4.70754
199209061320         4.70755
199209061325         4.70753
199209061330         4.70756
199209061335         4.70751
199209061340         4.70753
199209061345         4.70747
199209061350         4.70748
199209061355         4.70758
199209061400         4.70749
199209061405         4.70752
199209061410         4.70748
199209061415         4.70745
199209061420         4.70758
199209061425         4.70751
199209061430          4.7075
199209061435         4.70748
199209061440         4.70741
199209061445         4.70755
199209061450         4.70749
199209061455         4.70749
199209061500          4.7075
199209061505         4.70741
199209061510         4.70749
199209061515         4.70752
199209061520         4.70745
199209061525         4.70743
199209061530         4.70752
199209061535         4.70754
199209061540         4.70751
199209061545         4.70756
199209061550         4.70756
199209061555         4.70754
199209061600         4.70758
199209061605         4.70754
199209061610         4.70755
199209061615         4.70755
199209061620         4.70747
199209061625         4.70753
199209061630         4.70746
199209061635         4.70737
199209061640         4.70755
199209061645         4.70752
199209061650         4.70749
199209061655         4.70746
199209061700         4.70754
199209061705         4.70747
199209061710         4.70745
199209061715         4.70754
199209061720         4.70742
199209061725         4.70751
199209061730         4.70754
199209061735          4.7075
199209061740         4.70755
199209061745         4.70749
199209061750         4.70752
199209061755         4.70755
199209061800         4.70744
199209061805         4.70749
199209061810         4.70756
199209061815          4.7075
199209061820         4.70749
199209061825         4.70752
199209061830         4.70744
199209061835          4.7075
199209061840         4.70756
199209061845         4.70752
199209061850         4.70754
199209061855         4.70756
199209061900         4.70752
199209061905         4.70754
199209061910         4.70756
199209061915         4.70749
199209061920         4.70749
199209061925         4.70754
199209061930         4.70749
199209061935          4.7075
199209061940         4.70756
199209061945         4.70752
199209061950         4.70753
199209061955         4.70753
199209062000         4.70755
199209062005         4.70753
199209062010         4.70755
199209062015         4.70751
199209062020         4.70755
199209062025         4.70755
199209062030         4.70753
199209062035         4.70752
199209062040         4.70755
199209062045         4.70751
199209062050          4.7075
199209062055         4.70751
199209062100         4.70751
199209062105         4.70752
199209062110         4.70751
199209062115         4.70753
199209062120         4.70743
199209062125          4.7074
199209062130         4.70754
199209062135         4.70753
199209062140         4.70751
199209062145         4.70754
199209062150         4.70752
199209062155         4.70751
199209062200         4.70752
199209062205         4.70743
199209062210         4.70755
199209062215          4.7075
199209062220          4.7075
199209062225         4.70756
199209062230         4.70753
199209062235         4.70753
199209062240         4.70756
199209062245         4.70755
199209062250         4.70755
199209062255         4.70755
199209062300         4.70754
199209062305         4.70753
199209062310         4.70751
199209062315         4.70752
199209062320         4.70753
199209062325          4.7075
199209062330         4.70754
199209062335         4.70747
199209062340         4.70746
199209062345         4.70753
199209062350         4.70745
199209062355          4.7075
199209070000         4.70743
199209070005         4.70748
199209070010         4.70751
199209070015         4.70751
199209070020         4.70752
199209070025         4.70753
199209070030         4.70752
199209070035         4.70753
199209070040         4.70755
199209070045         4.70753
199209070050         4.70755
199209070055         4.70753
199209070100          4.7075
199209070105         4.70749
199209070110         4.70745
199209070115         4.70753
199209070120         4.70745
199209070125         4.70754
199209070130         4.70751
199209070135         4.70749
199209070140         4.70752
199209070145         4.70747
199209070150         4.70748
199209070155         4.70754
199209070200         4.70748
199209070205         4.70756
199209070210         4.70754
199209070215         4.70753
199209070220         4.70755
199209070225         4.70754
199209070230         4.70751
199209070235          4.7075
199209070240         4.70747
199209070245         4.70755
199209070250         4.70752
199209070255         4.70751
199209070300         4.70749
199209070305         4.70741
199209070310         4.70746
199209070315         4.70753
199209070320         4.70749
199209070325         4.70746
199209070330         4.70741
199209070335         4.70753
199209070340         4.70754
199209070345          4.7075
199209070350         4.70756
199209070355         4.70748
199209070400         4.70747
199209070405         4.70747
199209070410         4.70755
199209070415         4.70753
199209070420         4.70751
199209070425         4.70752
199209070430         4.70756
199209070435         4.70751
199209070440         4.70752
199209070445         4.70753
199209070450         4.70747
199209070455          4.7075
199209070500         4.70738
199209070505         4.70749
199209070510         4.70755
199209070515         4.70752
199209070520         4.70755
199209070525         4.70753
199209070530         4.70755
199209070535         4.70757
199209070540         4.70753
199209070545          4.7075
199209070550         4.70753
199209070555         4.70744
199209070600         4.70737
199209070605         4.70752
199209070610         4.70752
199209070615         4.70748
199209070620         4.70752
199209070625         4.70748
199209070630         4.70757
199209070635         4.70747
199209070640          4.7075
199209070645         4.70752
199209070650         4.70751
199209070655         4.70754
199209070700         4.70752
199209070705         4.70755
199209070710         4.70755
199209070715         4.70749
199209070720         4.70756
199209070725         4.70752
199209070730         4.70754
199209070735         4.70753
199209070740          4.7075
199209070745         4.70754
199209070750         4.70752
199209070755         4.70753
199209070800         4.70749
199209070805         4.70751
199209070810         4.70748
199209070815         4.70748
199209070820         4.70754
199209070825         4.70751
199209070830         4.70753
199209070835         4.70752
199209070840          4.7075
199209070845         4.70743
199209070850         4.70754
199209070855          4.7075
199209070900         4.70752
199209070905         4.70756
199209070910         4.70752
199209070915         4.70755
199209070920         4.70755
199209070925         4.70755
199209070930         4.70754
199209070935          4.7075
199209070940         4.70755
199209070945         4.70755
199209070950         4.70752
199209070955         4.70755
199209071000         4.70752
199209071005         4.70748
199209071010         4.70747
199209071015         4.70753
199209071020         4.70742
199209071025         4.70748
199209071030          4.7075
199209071035         4.70748
199209071040         4.70743
199209071045         4.70751
199209071050          4.7075
199209071055         4.70742
199209071100         4.70749
199209071105         4.70755
199209071110         4.70753
199209071115         4.70752
199209071120         4.70757
199209071125         4.70755
199209071130         4.70756
199209071135         4.70752
199209071140         4.70751
199209071145          4.7075
199209071150         4.70746
199209071155         4.70756
199209071200         4.70752
199209071205         4.70753
199209071210         4.70755
199209071215         4.70755
199209071220         4.70754
199209071225         4.70755
199209071230         4.70754
199209071235         4.70753
199209071240         4.70752
199209071245         4.70751
199209071250         4.70743
199209071255         4.70744
199209071300          4.7075
199209071305         4.70751
199209071310         4.70752
199209071315          4.7075
199209071320         4.70755
199209071325          4.7075
199209071330         4.70754
199209071335         4.70754
199209071340         4.70751
199209071345         4.70755
199209071350         4.70752
199209071355         4.70754
199209071400         4.70754
199209071405         4.70752
199209071410         4.70755
199209071415         4.70754
199209071420          4.7075
199209071425         4.70754
199209071430         4.70751
199209071435         4.70753
199209071440         4.70752
199209071445         4.70751
199209071450         4.70754
199209071455         4.70754
199209071500         4.70751
199209071505         4.70753
199209071510          4.7075
199209071515         4.70744
199209071520         4.70756
199209071525         4.70752
199209071530         4.70752
199209071535         4.70754
199209071540         4.70754
199209071545         4.70752
199209071550          4.7075
199209071555         4.70747
199209071600         4.70753
199209071605         4.70744
199209071610         4.70749
199209071615          4.7075
199209071620         4.70748
199209071625         4.70752
199209071630         4.70751
199209071635         4.70755
199209071640         4.70748
199209071645         4.70753
199209071650         4.70751
199209071655         4.70751
199209071700         4.70754
199209071705          4.7075
199209071710         4.70752
199209071715         4.70744
199209071720         4.70746
199209071725         4.70753
199209071730         4.70749
199209071735         4.70752
199209071740         4.70753
199209071745         4.70753
199209071750         4.70754
199209071755         4.70754
199209071800         4.70749
199209071805         4.70752
199209071810         4.70754
199209071815         4.70748
199209071820         4.70755
199209071825         4.70751
199209071830         4.70754
199209071835         4.70749
199209071840          4.7075
199209071845         4.70741
199209071850         4.70751
199209071855         4.70756
199209071900         4.70749
199209071905         4.70752
199209071910         4.70753
199209071915         4.70753
199209071920         4.70751
199209071925         4.70754
199209071930         4.70752
199209071935         4.70754
199209071940         4.70752
199209071945         4.70755
199209071950         4.70752
199209071955         4.70753
199209072000         4.70753
199209072005         4.70749
199209072010         4.70749
199209072015         4.70744
199209072020          4.7075
199209072025         4.70741
199209072030         4.70751
199209072035         4.70753
199209072040         4.70751
199209072045         4.70754
199209072050         4.70754
199209072055         4.70754
199209072100         4.70753
199209072105         4.70748
199209072110         4.70749
199209072115          4.7075
199209072120         4.70751
199209072125         4.70746
199209072130         4.70751
199209072135          4.7075
199209072140         4.70748
199209072145         4.70744
199209072150         4.70755
199209072155         4.70751
199209072200         4.70752
199209072205         4.70754
199209072210         4.70752
199209072215         4.70755
199209072220         4.70753
199209072225         4.70751
199209072230         4.70742
199209072235         4.70746
199209072240         4.70758
199209072245         4.70748
199209072250         4.70753
199209072255         4.70747
199209072300         4.70748
199209072305         4.70757
199209072310         4.70754
199209072315         4.70751
199209072320         4.70751
199209072325         4.70745
199209072330         4.70744
199209072335         4.70751
199209072340         4.70746
199209072345         4.70744
199209072350         4.70753
199209072355         4.70752
199209080000         4.70749
199209080005         4.70746
199209080010         4.70743
199209080015         4.70756
199209080020         4.70748
199209080025         4.70754
199209080030         4.70754
199209080035          4.7075
199209080040         4.70754
199209080045         4.70755
199209080050         4.70754
199209080055         4.70756
199209080100         4.70753
199209080105         4.70756
199209080110         4.70756
199209080115         4.70753
199209080120         4.70756
199209080125         4.70753
199209080130         4.70752
199209080135         4.70751
199209080140         4.70742
199209080145         4.70752
199209080150         4.70753
199209080155         4.70747
199209080200         4.70751
199209080205         4.70739
199209080210         4.70746
199209080215         4.70753
199209080220         4.70749
199209080225         4.70744
199209080230         4.70755
199209080235         4.70754
199209080240         4.70753
199209080245         4.70755
199209080250         4.70753
199209080255         4.70756
199209080300         4.70753
199209080305         4.70754
199209080310         4.70753
199209080315         4.70752
199209080320         4.70745
199209080325         4.70751
199209080330         4.70751
199209080335         4.70749
199209080340         4.70754
199209080345         4.70751
199209080350         4.70753
199209080355         4.70743
199209080400         4.70749
199209080405         4.70754
199209080410         4.70751
199209080415          4.7075
199209080420         4.70744
199209080425         4.70745
199209080430         4.70753
199209080435          4.7075
199209080440         4.70744
199209080445         4.70754
199209080450         4.70746
199209080455         4.70746
199209080500         4.70753
199209080505         4.70754
199209080510         4.70751
199209080515         4.70753
199209080520         4.70745
199209080525         4.70742
199209080530         4.70755
199209080535         4.70751
199209080540         4.70747
199209080545         4.70756
199209080550         4.70756
199209080555         4.70755
199209080600         4.70756
199209080605         4.70756
199209080610         4.70755
199209080615         4.70756
199209080620         4.70754
199209080625         4.70753
199209080630         4.70747
199209080635         4.70755
199209080640         4.70754
199209080645         4.70748
199209080650         4.70753
199209080655         4.70755
199209080700         4.70752
199209080705         4.70754
199209080710         4.70754
199209080715         4.70754
199209080720          4.7075
199209080725         4.70754
199209080730         4.70752
199209080735         4.70747
199209080740         4.70752
199209080745         4.70755
199209080750         4.70751
199209080755         4.70752
199209080800         4.70746
199209080805         4.70748
199209080810         4.70757
199209080815          4.7075
199209080820         4.70749
199209080825         4.70752
199209080830         4.70754
199209080835         4.70753
199209080840         4.70753
199209080845          4.7075
199209080850         4.70751
199209080855         4.70751
199209080900         4.70754
199209080905         4.70751
199209080910         4.70755
199209080915         4.70751
199209080920         4.70749
199209080925         4.70753
199209080930         4.70755
199209080935         4.70752
199209080940          4.7075
199209080945         4.70752
199209080950         4.70745
199209080955         4.70753
199209081000         4.70756
199209081005          4.7075
199209081010         4.70753
199209081015         4.70751
199209081020         4.70743
199209081025         4.70754
199209081030         4.70752
199209081035         4.70741
199209081040         4.70746
199209081045         4.70752
199209081050         4.70749
199209081055         4.70752
199209081100         4.70753
199209081105         4.70755
199209081110         4.70754
199209081115         4.70755
199209081120         4.70753
199209081125         4.70756
199209081130         4.70751
199209081135          4.7075
199209081140         4.70745
199209081145         4.70749
199209081150         4.70752
199209081155          4.7075
199209081200         4.70753
199209081205          4.7075
199209081210         4.70754
199209081215         4.70756
199209081220         4.70753
199209081225         4.70752
199209081230         4.70755
199209081235         4.70753
199209081240         4.70752
199209081245         4.70742
199209081250         4.70745
199209081255         4.70756
199209081300         4.70749
199209081305          4.7075
199209081310          4.7075
199209081315         4.70743
199209081320         4.70748
199209081325         4.70752
199209081330         4.70753
199209081335         4.70752
199209081340         4.70755
199209081345         4.70753
199209081350         4.70755
199209081355         4.70753
199209081400          4.7075
199209081405         4.70744
199209081410         4.70746
199209081415          4.7075
199209081420         4.70749
199209081425         4.70751
199209081430         4.70749
199209081435         4.70754
199209081440         4.70752
199209081445         4.70754
199209081450         4.70748
199209081455         4.70755
199209081500         4.70753
199209081505         4.70751
199209081510         4.70755
199209081515         4.70752
199209081520          4.7075
199209081525          4.7075
199209081530         4.70756
199209081535         4.70751
199209081540         4.70751
199209081545          4.7075
199209081550         4.70744
199209081555         4.70747
199209081600         4.70749
199209081605          4.7075
199209081610         4.70745
199209081615         4.70748
199209081620         4.70757
199209081625         4.70748
199209081630         4.70753
199209081635         4.70755
199209081640         4.70752
199209081645         4.70755
199209081650         4.70756
199209081655         4.70752
199209081700         4.70749
199209081705          4.7075
199209081710         4.70743
199209081715         4.70749
199209081720         4.70751
199209081725         4.70749
199209081730         4.70749
199209081735         4.70755
199209081740         4.70751
199209081745          4.7075
199209081750         4.70739
199209081755         4.70753
199209081800         4.70755
199209081805         4.70745
199209081810         4.70754
199209081815         4.70754
199209081820         4.70752
199209081825          4.7075
199209081830         4.70747
199209081835         4.70758
199209081840         4.70751
199209081845         4.70751
199209081850         4.70749
199209081855         4.70757
199209081900         4.70749
199209081905         4.70748
199209081910         4.70754
199209081915         4.70754
199209081920         4.70753
199209081925         4.70755
199209081930         4.70753
199209081935         4.70755
199209081940         4.70753
199209081945         4.70751
199209081950         4.70753
199209081955         4.70749
199209082000         4.70752
199209082005         4.70755
199209082010         4.70751
199209082015         4.70751
199209082020         4.70755
199209082025         4.70754
199209082030         4.70753
199209082035         4.70754
199209082040          4.7075
199209082045         4.70746
199209082050         4.70742
199209082055         4.70747
199209082100         4.70753
199209082105         4.70749
199209082110         4.70753
199209082115         4.70751
199209082120         4.70755
199209082125         4.70755
199209082130         4.70754
199209082135         4.70753
199209082140         4.70753
199209082145         4.70748
199209082150         4.70756
199209082155         4.70753
199209082200         4.70751
199209082205         4.70751
199209082210         4.70749
199209082215         4.70755
199209082220         4.70751
199209082225         4.70754
199209082230         4.70753
199209082235         4.70753
199209082240         4.70751
199209082245         4.70747
199209082250          4.7075
199209082255         4.70756
199209082300         4.70749
199209082305         4.70753
199209082310         4.70753
199209082315         4.70748
199209082320          4.7075
199209082325         4.70742
199209082330         4.70754
199209082335         4.70749
199209082340         4.70746
199209082345         4.70752
199209082350          4.7075
199209082355         4.70755
199209090000         4.70753
199209090005          4.7075
199209090010          4.7075
199209090015         4.70743
199209090020         4.70755
199209090025         4.70754
199209090030          4.7075
199209090035         4.70754
199209090040         4.70752
199209090045         4.70749
199209090050         4.70752
199209090055         4.70753
199209090100         4.70747
199209090105         4.70754
199209090110         4.70743
199209090115         4.70753
199209090120         4.70756
199209090125         4.70751
199209090130         4.70755
199209090135         4.70753
199209090140         4.70754
199209090145         4.70756
199209090150         4.70752
199209090155         4.70752
199209090200         4.70755
199209090205         4.70751
199209090210         4.70751
199209090215         4.70748
199209090220         4.70744
199209090225         4.70755
199209090230         4.70747
199209090235          4.7075
199209090240          4.7075
199209090245         4.70754
199209090250         4.70747
199209090255          4.7075
199209090300         4.70756
199209090305         4.70749
199209090310         4.70754
199209090315         4.70747
199209090320         4.70751
199209090325         4.70751
199209090330          4.7075
199209090335         4.70753
199209090340         4.70746
199209090345          4.7075
199209090350         4.70755
199209090355         4.70749
199209090400         4.70756
199209090405         4.70751
199209090410         4.70753
199209090415         4.70753
199209090420         4.70749
199209090425          4.7075
199209090430         4.70743
199209090435         4.70742
199209090440         4.70752
199209090445         4.70752
199209090450         4.70747
199209090455          4.7075
199209090500         4.70755
199209090505         4.70752
199209090510         4.70754
199209090515         4.70754
199209090520         4.70753
199209090525         4.70751
199209090530         4.70757
199209090535         4.70753
199209090540         4.70754
199209090545         4.70754
199209090550         4.70753
199209090555          4.7075
199209090600          4.7075
199209090605         4.70752
199209090610         4.70751
199209090615          4.7075
199209090620         4.70751
199209090625         4.70753
199209090630         4.70748
199209090635         4.70755
199209090640         4.70752
199209090645          4.7075
199209090650          4.7075
199209090655         4.70751
199209090700         4.70752
199209090705         4.70741
199209090710         4.70737
199209090715         4.70749
199209090720         4.70748
199209090725         4.70742
199209090730          4.7075
199209090735         4.70753
199209090740         4.70749
199209090745         4.70756
199209090750         4.70753
199209090755         4.70756
199209090800         4.70754
199209090805         4.70754
199209090810         4.70754
199209090815         4.70753
199209090820         4.70748
199209090825         4.70751
199209090830         4.70756
199209090835         4.70748
199209090840         4.70746
199209090845         4.70755
199209090850         4.70749
199209090855         4.70745
199209090900         4.70753
199209090905          4.7075
199209090910         4.70751
199209090915         4.70755
199209090920         4.70751
199209090925         4.70754
199209090930         4.70748
199209090935         4.70755
199209090940         4.70753
199209090945         4.70753
199209090950         4.70756
199209090955         4.70753
199209091000         4.70755
199209091005         4.70754
199209091010         4.70754
199209091015         4.70751
199209091020         4.70748
199209091025         4.70748
199209091030         4.70755
199209091035         4.70751
199209091040         4.70751
199209091045         4.70754
199209091050          4.7075
199209091055         4.70754
199209091100         4.70752
199209091105         4.70752
199209091110         4.70752
199209091115         4.70754
199209091120          4.7075
199209091125         4.70754
199209091130         4.70754
199209091135         4.70752
199209091140         4.70753
199209091145         4.70752
199209091150         4.70753
199209091155         4.70753
199209091200         4.70751
199209091205         4.70749
199209091210         4.70754
199209091215         4.70748
199209091220         4.70747
199209091225         4.70753
199209091230         4.70748
199209091235         4.70745
199209091240          4.7075
199209091245         4.70747
199209091250         4.70746
199209091255         4.70754
199209091300         4.70748
199209091305         4.70755
199209091310         4.70753
199209091315         4.70755
199209091320         4.70754
199209091325         4.70754
199209091330         4.70754
199209091335         4.70751
199209091340         4.70749
199209091345         4.70747
199209091350         4.70753
199209091355          4.7075
199209091400         4.70743
199209091405         4.70737
199209091410         4.70755
199209091415         4.70748
199209091420         4.70751
199209091425         4.70752
199209091430         4.70749
199209091435         4.70745
199209091440         4.70749
199209091445         4.70755
199209091450         4.70749
199209091455         4.70753
199209091500         4.70754
199209091505         4.70752
199209091510         4.70755
199209091515         4.70755
199209091520         4.70753
199209091525         4.70754
199209091530         4.70755
199209091535         4.70751
199209091540         4.70754
199209091545         4.70751
199209091550         4.70754
199209091555         4.70751
199209091600         4.70752
199209091605          4.7075
199209091610         4.70743
199209091615         4.70741
199209091620          4.7075
199209091625         4.70752
199209091630         4.70748
199209091635          4.7075
199209091640         4.70748
199209091645         4.70737
199209091650         4.70749
199209091655         4.70755
199209091700         4.70746
199209091705         4.70755
199209091710         4.70751
199209091715         4.70751
199209091720         4.70742
199209091725         4.70754
199209091730         4.70752
199209091735         4.70749
199209091740         4.70756
199209091745         4.70752
199209091750         4.70751
199209091755         4.70755
199209091800         4.70754
199209091805         4.70752
199209091810          4.7075
199209091815         4.70753
199209091820         4.70754
199209091825         4.70747
199209091830         4.70751
199209091835         4.70749
199209091840         4.70743
199209091845         4.70751
199209091850         4.70751
199209091855         4.70749
199209091900         4.70753
199209091905         4.70754
199209091910         4.70746
199209091915          4.7075
199209091920         4.70757
199209091925         4.70749
199209091930         4.70754
199209091935         4.70753
199209091940          4.7075
199209091945         4.70742
199209091950          4.7075
199209091955         4.70752
199209092000         4.70748
199209092005         4.70746
199209092010         4.70738
199209092015         4.70758
199209092020         4.70752
199209092025         4.70754
199209092030         4.70756
199209092035         4.70752
199209092040         4.70756
199209092045         4.70751
199209092050         4.70746
199209092055         4.70746
199209092100         4.70751
199209092105         4.70753
199209092110         4.70751
199209092115         4.70749
199209092120         4.70749
199209092125         4.70749
199209092130         4.70747
199209092135         4.70755
199209092140          4.7075
199209092145          4.7075
199209092150         4.70752
199209092155         4.70746
199209092200         4.70758
199209092205         4.70751
199209092210         4.70747
199209092215         4.70758
199209092220         4.70753
199209092225         4.70755
199209092230         4.70752
199209092235         4.70748
199209092240         4.70753
199209092245         4.70754
199209092250         4.70747
199209092255         4.70753
199209092300         4.70756
199209092305         4.70751
199209092310         4.70753
199209092315         4.70755
199209092320         4.70755
199209092325         4.70753
199209092330         4.70756
199209092335         4.70754
199209092340         4.70754
199209092345         4.70755
199209092350         4.70751
199209092355         4.70754
199209100000         4.70746
