#------------------------------------------------------
# Deltares, D-Flow FM Version 1.1.35.22725:22731M, Oct 11 2012, 12:57:19
# Created on 2012-12-06T16:27:57+0100, D-Flow FM
#------------------------------------------------------
# Location    : Obs03
# Position    : (200,2)
# Source      : model
# Unit        : waterlevel
# Analyse time: most recent
# Timezone    : GMT
#------------------------------------------------------
199208310000               0
199208310005      1.7287e-18
199208310010     1.81577e-13
199208310015      1.0739e-10
199208310020     1.06504e-08
199208310025     3.44999e-07
199208310030     5.35564e-06
199208310035     4.81311e-05
199208310040     0.000281361
199208310045      0.00114813
199208310050      0.00340958
199208310055      0.00769781
199208310100       0.0139595
199208310105       0.0216481
199208310110       0.0303025
199208310115       0.0397595
199208310120       0.0500564
199208310125        0.061292
199208310130       0.0735357
199208310135       0.0868159
199208310140         0.10112
199208310145          0.1164
199208310150        0.132573
199208310155         0.14953
199208310200        0.167133
199208310205         0.18523
199208310210        0.203667
199208310215        0.222298
199208310220         0.24099
199208310225        0.259613
199208310230        0.278048
199208310235        0.296192
199208310240        0.313962
199208310245        0.331284
199208310250        0.348118
199208310255        0.364435
199208310300         0.38022
199208310305        0.395484
199208310310        0.410239
199208310315          0.4245
199208310320        0.438285
199208310325        0.451618
199208310330        0.464524
199208310335        0.477027
199208310340        0.489151
199208310345        0.500926
199208310350        0.512385
199208310355        0.523557
199208310400        0.534465
199208310405        0.545128
199208310410        0.555567
199208310415         0.56581
199208310420        0.575883
199208310425        0.585812
199208310430        0.595611
199208310435        0.605295
199208310440         0.61488
199208310445        0.624387
199208310450        0.633831
199208310455        0.643222
199208310500        0.652572
199208310505        0.661901
199208310510        0.671284
199208310515        0.681015
199208310520         0.69194
199208310525        0.705999
199208310530        0.728448
199208310535        0.756014
199208310540        0.803168
199208310545        0.863611
199208310550        0.924136
199208310555        0.973682
199208310600         1.02374
199208310605         1.08246
199208310610         1.14656
199208310615         1.21396
199208310620         1.28386
199208310625         1.35481
199208310630         1.42553
199208310635         1.49543
199208310640         1.56447
199208310645         1.63231
199208310650         1.69811
199208310655         1.76128
199208310700          1.8218
199208310705         1.88005
199208310710         1.93622
199208310715         1.99019
199208310720         2.04204
199208310725         2.09187
199208310730         2.13978
199208310735         2.18593
199208310740         2.23039
199208310745          2.2732
199208310750         2.31452
199208310755         2.35452
199208310800         2.39325
199208310805         2.43056
199208310810         2.46651
199208310815          2.5015
199208310820         2.53537
199208310825         2.56779
199208310830         2.59909
199208310835         2.62943
199208310840         2.65875
199208310845         2.68714
199208310850          2.7146
199208310855         2.74114
199208310900          2.7668
199208310905         2.79163
199208310910         2.81571
199208310915         2.83896
199208310920         2.86146
199208310925         2.88327
199208310930         2.90432
199208310935         2.92467
199208310940          2.9444
199208310945         2.96348
199208310950         2.98195
199208310955         2.99979
199208311000         3.01701
199208311005         3.03371
199208311010         3.04987
199208311015         3.06552
199208311020         3.08069
199208311025         3.09535
199208311030         3.10951
199208311035         3.12324
199208311040         3.13657
199208311045         3.14941
199208311050         3.16178
199208311055         3.17394
199208311100         3.18568
199208311105         3.19689
199208311110         3.20782
199208311115         3.21857
199208311120         3.22882
199208311125         3.23878
199208311130          3.2485
199208311135         3.25783
199208311140         3.26692
199208311145         3.27571
199208311150          3.2841
199208311155         3.29234
199208311200         3.30045
199208311205         3.30818
199208311210         3.31574
199208311215         3.32304
199208311220         3.32993
199208311225         3.33677
199208311230         3.34359
199208311235         3.35011
199208311240         3.35635
199208311245         3.36244
199208311250         3.36815
199208311255         3.37374
199208311300         3.37928
199208311305         3.38461
199208311310         3.38978
199208311315         3.39479
199208311320         3.39964
199208311325         3.40431
199208311330         3.40884
199208311335         3.41323
199208311340          3.4175
199208311345         3.42165
199208311350          3.4257
199208311355         3.42964
199208311400         3.43347
199208311405         3.43721
199208311410         3.44085
199208311415         3.44438
199208311420         3.44782
199208311425         3.45116
199208311430         3.45442
199208311435         3.45758
199208311440         3.46067
199208311445         3.46367
199208311450         3.46659
199208311455         3.46942
199208311500         3.47219
199208311505         3.47487
199208311510         3.47747
199208311515         3.48002
199208311520          3.4825
199208311525         3.48491
199208311530         3.48725
199208311535         3.48954
199208311540         3.49177
199208311545         3.49393
199208311550         3.49603
199208311555         3.49807
199208311600         3.50007
199208311605           3.502
199208311610         3.50388
199208311615         3.50571
199208311620         3.50749
199208311625         3.50923
199208311630         3.51092
199208311635         3.51257
199208311640         3.51417
199208311645         3.51573
199208311650         3.51726
199208311655         3.51873
199208311700         3.52017
199208311705         3.52158
199208311710         3.52293
199208311715         3.52426
199208311720         3.52554
199208311725          3.5268
199208311730         3.52804
199208311735         3.52923
199208311740         3.53039
199208311745         3.53153
199208311750         3.53262
199208311755         3.53369
199208311800         3.53474
199208311805         3.53575
199208311810         3.53674
199208311815          3.5377
199208311820         3.53864
199208311825         3.53954
199208311830         3.54042
199208311835         3.54129
199208311840         3.54213
199208311845         3.54294
199208311850         3.54372
199208311855         3.54448
199208311900         3.54524
199208311905           3.546
199208311910         3.54672
199208311915         3.54742
199208311920          3.5481
199208311925         3.54876
199208311930         3.54941
199208311935         3.55003
199208311940         3.55064
199208311945         3.55124
199208311950         3.55182
199208311955         3.55238
199208312000         3.55293
199208312005         3.55346
199208312010         3.55398
199208312015         3.55447
199208312020         3.55497
199208312025         3.55546
199208312030         3.55591
199208312035         3.55635
199208312040          3.5568
199208312045         3.55725
199208312050         3.55767
199208312055         3.55808
199208312100         3.55848
199208312105         3.55887
199208312110         3.55926
199208312115         3.55963
199208312120         3.55998
199208312125         3.56032
199208312130         3.56066
199208312135           3.561
199208312140         3.56132
199208312145         3.56164
199208312150         3.56195
199208312155         3.56224
199208312200         3.56253
199208312205         3.56281
199208312210         3.56309
199208312215         3.56335
199208312220         3.56361
199208312225         3.56387
199208312230         3.56412
199208312235         3.56436
199208312240         3.56459
199208312245         3.56482
199208312250         3.56505
199208312255         3.56526
199208312300         3.56547
199208312305         3.56567
199208312310         3.56587
199208312315         3.56606
199208312320         3.56626
199208312325         3.56644
199208312330         3.56662
199208312335         3.56679
199208312340         3.56697
199208312345         3.56713
199208312350         3.56729
199208312355         3.56745
199209010000         3.56759
199209010005         3.56773
199209010010         3.56788
199209010015         3.56802
199209010020         3.56815
199209010025         3.56828
199209010030          3.5684
199209010035         3.56853
199209010040         3.56867
199209010045         3.56879
199209010050         3.56891
199209010055         3.56903
199209010100         3.56914
199209010105         3.56924
199209010110         3.56934
199209010115         3.56945
199209010120         3.56956
199209010125         3.56966
199209010130         3.56976
199209010135         3.56986
199209010140         3.56995
199209010145         3.57004
199209010150         3.57012
199209010155          3.5702
199209010200         3.57027
199209010205         3.57034
199209010210         3.57042
199209010215          3.5705
199209010220         3.57056
199209010225         3.57063
199209010230          3.5707
199209010235         3.57078
199209010240         3.57084
199209010245          3.5709
199209010250         3.57095
199209010255         3.57101
199209010300         3.57109
199209010305         3.57115
199209010310         3.57121
199209010315         3.57127
199209010320         3.57132
199209010325         3.57138
199209010330         3.57144
199209010335         3.57148
199209010340         3.57153
199209010345         3.57157
199209010350         3.57161
199209010355         3.57166
199209010400          3.5717
199209010405         3.57175
199209010410         3.57178
199209010415         3.57181
199209010420         3.57184
199209010425         3.57187
199209010430         3.57192
199209010435         3.57195
199209010440         3.57199
199209010445         3.57203
199209010450         3.57207
199209010455          3.5721
199209010500         3.57213
199209010505         3.57216
199209010510         3.57219
199209010515         3.57223
199209010520         3.57225
199209010525         3.57228
199209010530         3.57231
199209010535         3.57233
199209010540         3.57236
199209010545         3.57238
199209010550         3.57241
199209010555         3.57243
199209010600         3.57244
199209010605         3.57247
199209010610         3.57249
199209010615         3.57251
199209010620         3.57254
199209010625         3.57256
199209010630         3.57258
199209010635          3.5726
199209010640         3.57262
199209010645         3.57264
199209010650         3.57265
199209010655         3.57267
199209010700         3.57269
199209010705          3.5727
199209010710         3.57272
199209010715         3.57274
199209010720         3.57275
199209010725         3.57276
199209010730         3.57278
199209010735          3.5728
199209010740         3.57281
199209010745         3.57282
199209010750         3.57283
199209010755         3.57284
199209010800         3.57286
199209010805         3.57287
199209010810         3.57288
199209010815         3.57289
199209010820          3.5729
199209010825         3.57291
199209010830         3.57292
199209010835         3.57293
199209010840         3.57293
199209010845         3.57294
199209010850         3.57296
199209010855         3.57296
199209010900         3.57297
199209010905         3.57298
199209010910         3.57299
199209010915           3.573
199209010920         3.57301
199209010925         3.57302
199209010930         3.57302
199209010935         3.57302
199209010940         3.57302
199209010945         3.57303
199209010950         3.57303
199209010955         3.57303
199209011000         3.57305
199209011005         3.57305
199209011010         3.57304
199209011015         3.57304
199209011020         3.57306
199209011025         3.57308
199209011030         3.57308
199209011035         3.57309
199209011040         3.57309
199209011045          3.5731
199209011050         3.57311
199209011055         3.57311
199209011100         3.57312
199209011105         3.57313
199209011110         3.57313
199209011115         3.57313
199209011120         3.57312
199209011125         3.57312
199209011130         3.57313
199209011135         3.57315
199209011140         3.57315
199209011145         3.57315
199209011150         3.57316
199209011155         3.57315
199209011200         3.57315
199209011205         3.57316
199209011210         3.57316
199209011215         3.57315
199209011220         3.57316
199209011225         3.57317
199209011230         3.57317
199209011235         3.57317
199209011240         3.57318
199209011245         3.57318
199209011250         3.57319
199209011255          3.5732
199209011300          3.5732
199209011305          3.5732
199209011310         3.57321
199209011315         3.57321
199209011320         3.57322
199209011325         3.57322
199209011330         3.57322
199209011335         3.57322
199209011340         3.57322
199209011345         3.57322
199209011350         3.57322
199209011355         3.57322
199209011400         3.57323
199209011405         3.57323
199209011410         3.57323
199209011415         3.57324
199209011420         3.57324
199209011425         3.57324
199209011430         3.57324
199209011435         3.57324
199209011440         3.57324
199209011445         3.57324
199209011450         3.57323
199209011455         3.57323
199209011500         3.57324
199209011505         3.57323
199209011510         3.57321
199209011515         3.57322
199209011520         3.57324
199209011525         3.57324
199209011530         3.57324
199209011535         3.57324
199209011540         3.57324
199209011545         3.57325
199209011550         3.57326
199209011555         3.57326
199209011600         3.57326
199209011605         3.57326
199209011610         3.57326
199209011615         3.57326
199209011620         3.57327
199209011625         3.57327
199209011630         3.57326
199209011635         3.57326
199209011640         3.57325
199209011645         3.57324
199209011650         3.57325
199209011655         3.57326
199209011700         3.57325
199209011705         3.57325
199209011710         3.57325
199209011715         3.57326
199209011720         3.57327
199209011725         3.57326
199209011730         3.57325
199209011735         3.57325
199209011740         3.57326
199209011745         3.57327
199209011750         3.57326
199209011755         3.57326
199209011800         3.57327
199209011805         3.57328
199209011810         3.57328
199209011815         3.57328
199209011820         3.57328
199209011825         3.57328
199209011830         3.57328
199209011835         3.57328
199209011840         3.57328
199209011845         3.57327
199209011850         3.57327
199209011855         3.57327
199209011900         3.57326
199209011905         3.57326
199209011910         3.57327
199209011915         3.57327
199209011920         3.57327
199209011925         3.57325
199209011930         3.57326
199209011935         3.57328
199209011940         3.57328
199209011945         3.57328
199209011950         3.57328
199209011955         3.57328
199209012000         3.57327
199209012005         3.57328
199209012010         3.57329
199209012015         3.57328
199209012020         3.57329
199209012025         3.57329
199209012030         3.57328
199209012035         3.57328
199209012040         3.57327
199209012045         3.57326
199209012050         3.57328
199209012055         3.57329
199209012100         3.57329
199209012105         3.57329
199209012110         3.57329
199209012115         3.57329
199209012120         3.57329
199209012125         3.57327
199209012130         3.57327
199209012135         3.57328
199209012140         3.57328
199209012145         3.57328
199209012150         3.57328
199209012155         3.57329
199209012200         3.57329
199209012205         3.57329
199209012210          3.5733
199209012215          3.5733
199209012220          3.5733
199209012225         3.57329
199209012230         3.57328
199209012235         3.57328
199209012240         3.57329
199209012245         3.57327
199209012250         3.57326
199209012255         3.57327
199209012300         3.57328
199209012305         3.57328
199209012310         3.57329
199209012315         3.57329
199209012320         3.57328
199209012325         3.57328
199209012330         3.57327
199209012335         3.57326
199209012340         3.57327
199209012345         3.57328
199209012350         3.57328
199209012355         3.57329
199209020000         3.57329
199209020005          3.5733
199209020010          3.5733
199209020015          3.5733
199209020020          3.5733
199209020025         3.57329
199209020030         3.57329
199209020035         3.57329
199209020040         3.57329
199209020045         3.57329
199209020050         3.57327
199209020055         3.57328
199209020100         3.57328
199209020105         3.57326
199209020110         3.57326
199209020115         3.57328
199209020120         3.57328
199209020125         3.57329
199209020130         3.57329
199209020135         3.57329
199209020140          3.5733
199209020145          3.5733
199209020150          3.5733
199209020155          3.5733
199209020200          3.5733
199209020205          3.5733
199209020210          3.5733
199209020215         3.57329
199209020220         3.57329
199209020225         3.57329
199209020230          3.5733
199209020235          3.5733
199209020240          3.5733
199209020245          3.5733
199209020250          3.5733
199209020255          3.5733
199209020300          3.5733
199209020305          3.5733
199209020310         3.57329
199209020315          3.5733
199209020320          3.5733
199209020325          3.5733
199209020330          3.5733
199209020335          3.5733
199209020340          3.5733
199209020345          3.5733
199209020350          3.5733
199209020355         3.57329
199209020400         3.57327
199209020405         3.57326
199209020410         3.57328
199209020415         3.57329
199209020420         3.57328
199209020425         3.57328
199209020430         3.57329
199209020435         3.57329
199209020440         3.57328
199209020445         3.57328
199209020450         3.57328
199209020455         3.57328
199209020500         3.57328
199209020505         3.57327
199209020510         3.57327
199209020515         3.57327
199209020520         3.57328
199209020525         3.57328
199209020530         3.57327
199209020535         3.57326
199209020540         3.57327
199209020545         3.57327
199209020550         3.57325
199209020555         3.57325
199209020600         3.57327
199209020605         3.57326
199209020610         3.57326
199209020615         3.57327
199209020620         3.57328
199209020625         3.57328
199209020630         3.57328
199209020635         3.57328
199209020640         3.57327
199209020645         3.57327
199209020650         3.57328
199209020655         3.57328
199209020700         3.57327
199209020705         3.57327
199209020710         3.57328
199209020715         3.57328
199209020720         3.57328
199209020725         3.57329
199209020730         3.57329
199209020735         3.57327
199209020740         3.57327
199209020745         3.57327
199209020750         3.57327
199209020755         3.57326
199209020800         3.57327
199209020805         3.57328
199209020810         3.57329
199209020815         3.57329
199209020820         3.57329
199209020825          3.5733
199209020830          3.5733
199209020835          3.5733
199209020840          3.5733
199209020845          3.5733
199209020850         3.57329
199209020855         3.57329
199209020900         3.57329
199209020905          3.5733
199209020910          3.5733
199209020915         3.57331
199209020920          3.5733
199209020925         3.57331
199209020930         3.57331
199209020935         3.57331
199209020940         3.57331
199209020945          3.5733
199209020950          3.5733
199209020955         3.57329
199209021000         3.57329
199209021005         3.57331
199209021010          3.5733
199209021015         3.57329
199209021020         3.57329
199209021025         3.57327
199209021030         3.57328
199209021035          3.5733
199209021040          3.5733
199209021045          3.5733
199209021050          3.5733
199209021055          3.5733
199209021100         3.57328
199209021105         3.57327
199209021110         3.57328
199209021115         3.57329
199209021120         3.57328
199209021125         3.57327
199209021130         3.57327
199209021135         3.57328
199209021140          3.5733
199209021145          3.5733
199209021150          3.5733
199209021155         3.57329
199209021200         3.57329
199209021205         3.57329
199209021210          3.5733
199209021215         3.57329
199209021220         3.57329
199209021225         3.57327
199209021230         3.57327
199209021235         3.57329
199209021240         3.57329
199209021245         3.57329
199209021250         3.57329
199209021255         3.57329
199209021300          3.5733
199209021305         3.57329
199209021310         3.57329
199209021315          3.5733
199209021320          3.5733
199209021325          3.5733
199209021330          3.5733
199209021335          3.5733
199209021340         3.57331
199209021345         3.57331
199209021350          3.5733
199209021355          3.5733
199209021400          3.5733
199209021405          3.5733
199209021410         3.57331
199209021415          3.5733
199209021420         3.57331
199209021425         3.57331
199209021430          3.5733
199209021435          3.5733
199209021440          3.5733
199209021445         3.57329
199209021450         3.57329
199209021455         3.57329
199209021500         3.57328
199209021505         3.57327
199209021510         3.57328
199209021515         3.57328
199209021520         3.57327
199209021525         3.57329
199209021530          3.5733
199209021535         3.57329
199209021540         3.57329
199209021545         3.57328
199209021550         3.57328
199209021555          3.5733
199209021600          3.5733
199209021605         3.57329
199209021610          3.5733
199209021615          3.5733
199209021620          3.5733
199209021625          3.5733
199209021630         3.57331
199209021635          3.5733
199209021640          3.5733
199209021645         3.57331
199209021650          3.5733
199209021655         3.57329
199209021700         3.57328
199209021705         3.57328
199209021710          3.5733
199209021715          3.5733
199209021720         3.57329
199209021725         3.57329
199209021730         3.57328
199209021735         3.57327
199209021740         3.57327
199209021745         3.57328
199209021750         3.57328
199209021755         3.57329
199209021800         3.57329
199209021805          3.5733
199209021810          3.5733
199209021815          3.5733
199209021820          3.5733
199209021825          3.5733
199209021830          3.5733
199209021835          3.5733
199209021840          3.5733
199209021845          3.5733
199209021850          3.5733
199209021855          3.5733
199209021900         3.57329
199209021905         3.57329
199209021910         3.57328
199209021915         3.57329
199209021920         3.57329
199209021925         3.57328
199209021930         3.57328
199209021935         3.57327
199209021940         3.57327
199209021945         3.57328
199209021950         3.57329
199209021955         3.57329
199209022000         3.57329
199209022005         3.57329
199209022010          3.5733
199209022015          3.5733
199209022020         3.57329
199209022025         3.57328
199209022030         3.57327
199209022035         3.57328
199209022040         3.57328
199209022045         3.57328
199209022050         3.57329
199209022055         3.57329
199209022100         3.57329
199209022105          3.5733
199209022110          3.5733
199209022115          3.5733
199209022120          3.5733
199209022125          3.5733
199209022130          3.5733
199209022135          3.5733
199209022140          3.5733
199209022145          3.5733
199209022150          3.5733
199209022155          3.5733
199209022200          3.5733
199209022205          3.5733
199209022210         3.57329
199209022215         3.57328
199209022220         3.57327
199209022225         3.57328
199209022230         3.57328
199209022235         3.57328
199209022240         3.57328
199209022245         3.57328
199209022250         3.57328
199209022255         3.57328
199209022300         3.57329
199209022305         3.57329
199209022310         3.57329
199209022315         3.57329
199209022320         3.57329
199209022325         3.57329
199209022330         3.57329
199209022335         3.57328
199209022340         3.57327
199209022345         3.57328
199209022350         3.57329
199209022355         3.57327
199209030000         3.57327
199209030005         3.57327
199209030010         3.57326
199209030015         3.57328
199209030020         3.57329
199209030025         3.57329
199209030030         3.57329
199209030035         3.57329
199209030040         3.57329
199209030045         3.57329
199209030050         3.57328
199209030055         3.57328
199209030100         3.57328
199209030105         3.57328
199209030110         3.57329
199209030115         3.57329
199209030120         3.57329
199209030125         3.57329
199209030130         3.57329
199209030135         3.57329
199209030140         3.57329
199209030145         3.57329
199209030150          3.5733
199209030155         3.57329
199209030200         3.57329
199209030205         3.57328
199209030210         3.57329
199209030215         3.57328
199209030220         3.57326
199209030225         3.57327
199209030230         3.57328
199209030235         3.57327
199209030240         3.57328
199209030245         3.57328
199209030250         3.57329
199209030255         3.57329
199209030300         3.57329
199209030305         3.57329
199209030310         3.57329
199209030315         3.57328
199209030320         3.57329
199209030325          3.5733
199209030330         3.57329
199209030335         3.57329
199209030340         3.57328
199209030345         3.57329
199209030350          3.5733
199209030355         3.57329
199209030400         3.57329
199209030405         3.57328
199209030410         3.57327
199209030415         3.57328
199209030420         3.57329
199209030425         3.57329
199209030430          3.5733
199209030435          3.5733
199209030440          3.5733
199209030445          3.5733
199209030450          3.5733
199209030455          3.5733
199209030500          3.5733
199209030505         3.57329
199209030510         3.57328
199209030515         3.57327
199209030520         3.57328
199209030525         3.57329
199209030530         3.57329
199209030535          3.5733
199209030540          3.5733
199209030545          3.5733
199209030550          3.5733
199209030555          3.5733
199209030600          3.5733
199209030605          3.5733
199209030610          3.5733
199209030615          3.5733
199209030620          3.5733
199209030625          3.5733
199209030630          3.5733
199209030635          3.5733
199209030640          3.5733
199209030645          3.5733
199209030650         3.57329
199209030655         3.57329
199209030700         3.57329
199209030705         3.57328
199209030710         3.57329
199209030715         3.57329
199209030720         3.57327
199209030725         3.57327
199209030730         3.57328
199209030735         3.57329
199209030740         3.57328
199209030745         3.57329
199209030750         3.57329
199209030755         3.57329
199209030800         3.57328
199209030805         3.57327
199209030810         3.57328
199209030815          3.5733
199209030820         3.57329
199209030825         3.57328
199209030830         3.57328
199209030835         3.57329
199209030840          3.5733
199209030845          3.5733
199209030850          3.5733
199209030855          3.5733
199209030900          3.5733
199209030905         3.57329
199209030910         3.57328
199209030915         3.57328
199209030920         3.57327
199209030925         3.57327
199209030930         3.57327
199209030935         3.57328
199209030940         3.57328
199209030945         3.57327
199209030950         3.57326
199209030955         3.57326
199209031000         3.57328
199209031005         3.57328
199209031010         3.57328
199209031015         3.57327
199209031020         3.57326
199209031025         3.57327
199209031030         3.57328
199209031035         3.57326
199209031040         3.57326
199209031045         3.57327
199209031050         3.57328
199209031055         3.57328
199209031100         3.57328
199209031105         3.57329
199209031110         3.57329
199209031115         3.57327
199209031120         3.57327
199209031125         3.57328
199209031130         3.57329
199209031135         3.57327
199209031140         3.57326
199209031145         3.57329
199209031150          3.5733
199209031155         3.57329
199209031200          3.5733
199209031205          3.5733
199209031210         3.57329
199209031215          3.5733
199209031220          3.5733
199209031225          3.5733
199209031230          3.5733
199209031235         3.57329
199209031240         3.57328
199209031245         3.57328
199209031250         3.57329
199209031255          3.5733
199209031300         3.57329
199209031305         3.57329
199209031310          3.5733
199209031315          3.5733
199209031320         3.57331
199209031325          3.5733
199209031330          3.5733
199209031335          3.5733
199209031340          3.5733
199209031345          3.5733
199209031350         3.57329
199209031355         3.57329
199209031400          3.5733
199209031405          3.5733
199209031410         3.57329
199209031415          3.5733
199209031420          3.5733
199209031425          3.5733
199209031430          3.5733
199209031435          3.5733
199209031440         3.57328
199209031445         3.57328
199209031450         3.57329
199209031455         3.57329
199209031500         3.57328
199209031505         3.57327
199209031510         3.57327
199209031515         3.57329
199209031520         3.57329
199209031525         3.57328
199209031530         3.57328
199209031535         3.57329
199209031540         3.57329
199209031545         3.57329
199209031550          3.5733
199209031555         3.57329
199209031600         3.57328
199209031605         3.57328
199209031610         3.57329
199209031615         3.57329
199209031620         3.57329
199209031625          3.5733
199209031630          3.5733
199209031635          3.5733
199209031640          3.5733
199209031645         3.57331
199209031650          3.5733
199209031655          3.5733
199209031700         3.57331
199209031705         3.57331
199209031710         3.57331
199209031715         3.57331
199209031720          3.5733
199209031725         3.57329
199209031730         3.57329
199209031735         3.57329
199209031740         3.57328
199209031745          3.5733
199209031750          3.5733
199209031755         3.57329
199209031800         3.57328
199209031805         3.57328
199209031810         3.57329
199209031815         3.57329
199209031820         3.57329
199209031825          3.5733
199209031830          3.5733
199209031835          3.5733
199209031840          3.5733
199209031845         3.57329
199209031850         3.57328
199209031855         3.57328
199209031900         3.57329
199209031905         3.57329
199209031910         3.57329
199209031915         3.57329
199209031920          3.5733
199209031925          3.5733
199209031930          3.5733
199209031935         3.57329
199209031940         3.57329
199209031945         3.57328
199209031950         3.57328
199209031955         3.57329
199209032000         3.57329
199209032005         3.57329
199209032010          3.5733
199209032015          3.5733
199209032020          3.5733
199209032025          3.5733
199209032030          3.5733
199209032035         3.57328
199209032040         3.57327
199209032045         3.57329
199209032050         3.57328
199209032055         3.57327
199209032100         3.57328
199209032105         3.57328
199209032110         3.57328
199209032115         3.57329
199209032120         3.57329
199209032125         3.57328
199209032130         3.57328
199209032135         3.57329
199209032140         3.57328
199209032145         3.57327
199209032150         3.57328
199209032155         3.57329
199209032200         3.57329
199209032205         3.57329
199209032210          3.5733
199209032215          3.5733
199209032220          3.5733
199209032225          3.5733
199209032230          3.5733
199209032235          3.5733
199209032240          3.5733
199209032245          3.5733
199209032250          3.5733
199209032255          3.5733
199209032300          3.5733
199209032305         3.57329
199209032310         3.57328
199209032315         3.57329
199209032320         3.57329
199209032325         3.57329
199209032330         3.57328
199209032335         3.57329
199209032340         3.57329
199209032345         3.57329
199209032350         3.57329
199209032355          3.5733
199209040000          3.5733
199209040005         3.57329
199209040010         3.57329
199209040015         3.57328
199209040020         3.57327
199209040025         3.57328
199209040030         3.57329
199209040035         3.57329
199209040040         3.57328
199209040045         3.57329
199209040050         3.57329
199209040055         3.57329
199209040100         3.57329
199209040105          3.5733
199209040110          3.5733
199209040115          3.5733
199209040120          3.5733
199209040125         3.57329
199209040130          3.5733
199209040135          3.5733
199209040140          3.5733
199209040145          3.5733
199209040150          3.5733
199209040155          3.5733
199209040200          3.5733
199209040205         3.57329
199209040210         3.57329
199209040215         3.57328
199209040220         3.57328
199209040225         3.57328
199209040230         3.57326
199209040235         3.57327
199209040240         3.57328
199209040245         3.57328
199209040250         3.57328
199209040255         3.57329
199209040300         3.57329
199209040305          3.5733
199209040310          3.5733
199209040315         3.57329
199209040320         3.57328
199209040325         3.57327
199209040330         3.57329
199209040335         3.57329
199209040340         3.57329
199209040345         3.57329
199209040350         3.57329
199209040355         3.57329
199209040400          3.5733
199209040405          3.5733
199209040410          3.5733
199209040415          3.5733
199209040420          3.5733
199209040425          3.5733
199209040430          3.5733
199209040435          3.5733
199209040440         3.57329
199209040445         3.57329
199209040450         3.57329
199209040455         3.57329
199209040500         3.57329
199209040505         3.57328
199209040510         3.57327
199209040515         3.57327
199209040520         3.57328
199209040525         3.57328
199209040530         3.57327
199209040535         3.57328
199209040540         3.57329
199209040545         3.57329
199209040550         3.57329
199209040555         3.57329
199209040600         3.57329
199209040605         3.57329
199209040610         3.57328
199209040615         3.57328
199209040620         3.57329
199209040625          3.5733
199209040630         3.57329
199209040635         3.57329
199209040640         3.57329
199209040645         3.57329
199209040650         3.57329
199209040655          3.5733
199209040700         3.57329
199209040705         3.57329
199209040710          3.5733
199209040715         3.57329
199209040720         3.57329
199209040725         3.57329
199209040730         3.57329
199209040735         3.57329
199209040740         3.57328
199209040745         3.57328
199209040750         3.57328
199209040755         3.57328
199209040800         3.57326
199209040805         3.57328
199209040810         3.57329
199209040815         3.57328
199209040820         3.57329
199209040825         3.57329
199209040830         3.57328
199209040835         3.57328
199209040840         3.57328
199209040845          3.5733
199209040850         3.57329
199209040855         3.57329
199209040900          3.5733
199209040905          3.5733
199209040910         3.57329
199209040915         3.57329
199209040920         3.57329
199209040925          3.5733
199209040930          3.5733
199209040935         3.57329
199209040940         3.57329
199209040945         3.57329
199209040950         3.57328
199209040955         3.57327
199209041000         3.57328
199209041005         3.57328
199209041010         3.57328
199209041015         3.57328
199209041020         3.57328
199209041025         3.57328
199209041030         3.57328
199209041035         3.57327
199209041040         3.57326
199209041045         3.57327
199209041050         3.57328
199209041055         3.57328
199209041100         3.57328
199209041105         3.57329
199209041110         3.57329
199209041115          3.5733
199209041120          3.5733
199209041125          3.5733
199209041130          3.5733
199209041135         3.57329
199209041140         3.57328
199209041145         3.57328
199209041150         3.57329
199209041155         3.57327
199209041200         3.57326
199209041205         3.57328
199209041210         3.57329
199209041215         3.57329
199209041220         3.57329
199209041225          3.5733
199209041230          3.5733
199209041235          3.5733
199209041240          3.5733
199209041245          3.5733
199209041250         3.57329
199209041255         3.57328
199209041300         3.57329
199209041305          3.5733
199209041310         3.57329
199209041315          3.5733
199209041320          3.5733
199209041325          3.5733
199209041330          3.5733
199209041335          3.5733
199209041340          3.5733
199209041345          3.5733
199209041350          3.5733
199209041355          3.5733
199209041400          3.5733
199209041405          3.5733
199209041410          3.5733
199209041415          3.5733
199209041420         3.57329
199209041425         3.57328
199209041430         3.57328
199209041435         3.57328
199209041440         3.57329
199209041445         3.57329
199209041450         3.57329
199209041455          3.5733
199209041500          3.5733
199209041505          3.5733
199209041510          3.5733
199209041515          3.5733
199209041520          3.5733
199209041525         3.57329
199209041530         3.57329
199209041535         3.57329
199209041540         3.57329
199209041545          3.5733
199209041550          3.5733
199209041555          3.5733
199209041600          3.5733
199209041605          3.5733
199209041610          3.5733
199209041615          3.5733
199209041620          3.5733
199209041625          3.5733
199209041630          3.5733
199209041635          3.5733
199209041640          3.5733
199209041645          3.5733
199209041650          3.5733
199209041655          3.5733
199209041700         3.57329
199209041705         3.57328
199209041710         3.57327
199209041715         3.57328
199209041720         3.57328
199209041725         3.57328
199209041730         3.57328
199209041735         3.57329
199209041740         3.57329
199209041745         3.57329
199209041750         3.57329
199209041755          3.5733
199209041800         3.57329
199209041805          3.5733
199209041810          3.5733
199209041815          3.5733
199209041820          3.5733
199209041825         3.57329
199209041830         3.57329
199209041835         3.57329
199209041840          3.5733
199209041845          3.5733
199209041850          3.5733
199209041855          3.5733
199209041900          3.5733
199209041905          3.5733
199209041910         3.57329
199209041915         3.57329
199209041920          3.5733
199209041925         3.57329
199209041930         3.57329
199209041935         3.57328
199209041940         3.57327
199209041945         3.57328
199209041950         3.57329
199209041955         3.57328
199209042000         3.57327
199209042005         3.57327
199209042010         3.57328
199209042015         3.57329
199209042020         3.57328
199209042025         3.57328
199209042030         3.57329
199209042035         3.57328
199209042040         3.57328
199209042045         3.57327
199209042050         3.57327
199209042055         3.57327
199209042100         3.57328
199209042105         3.57328
199209042110         3.57328
199209042115         3.57328
199209042120         3.57329
199209042125         3.57329
199209042130         3.57329
199209042135         3.57329
199209042140         3.57329
199209042145         3.57329
199209042150          3.5733
199209042155          3.5733
199209042200          3.5733
199209042205          3.5733
199209042210          3.5733
199209042215          3.5733
199209042220          3.5733
199209042225          3.5733
199209042230          3.5733
199209042235          3.5733
199209042240         3.57329
199209042245         3.57329
199209042250         3.57329
199209042255         3.57329
199209042300         3.57329
199209042305         3.57329
199209042310          3.5733
199209042315         3.57329
199209042320          3.5733
199209042325          3.5733
199209042330         3.57329
199209042335         3.57329
199209042340          3.5733
199209042345         3.57329
199209042350         3.57329
199209042355         3.57329
199209050000          3.5733
199209050005          3.5733
199209050010         3.57329
199209050015         3.57328
199209050020         3.57328
199209050025         3.57329
199209050030         3.57328
199209050035         3.57327
199209050040         3.57327
199209050045         3.57328
199209050050         3.57328
199209050055         3.57329
199209050100         3.57328
199209050105         3.57328
199209050110         3.57328
199209050115         3.57328
199209050120         3.57329
199209050125         3.57329
199209050130         3.57328
199209050135         3.57327
199209050140         3.57327
199209050145         3.57328
199209050150         3.57328
199209050155         3.57327
199209050200         3.57327
199209050205         3.57326
199209050210         3.57326
199209050215         3.57329
199209050220         3.57328
199209050225         3.57329
199209050230         3.57329
199209050235         3.57329
199209050240          3.5733
199209050245          3.5733
199209050250         3.57329
199209050255         3.57329
199209050300         3.57329
199209050305         3.57329
199209050310         3.57327
199209050315         3.57327
199209050320         3.57328
199209050325         3.57329
199209050330         3.57328
199209050335         3.57327
199209050340         3.57327
199209050345         3.57327
199209050350         3.57328
199209050355         3.57328
199209050400         3.57328
199209050405         3.57327
199209050410         3.57326
199209050415         3.57327
199209050420         3.57329
199209050425         3.57328
199209050430         3.57329
199209050435         3.57329
199209050440         3.57329
199209050445         3.57328
199209050450         3.57329
199209050455         3.57329
199209050500         3.57328
199209050505         3.57328
199209050510         3.57328
199209050515         3.57328
199209050520         3.57329
199209050525         3.57329
199209050530          3.5733
199209050535          3.5733
199209050540         3.57329
199209050545         3.57329
199209050550         3.57328
199209050555         3.57327
199209050600         3.57329
199209050605         3.57329
199209050610         3.57329
199209050615         3.57329
199209050620          3.5733
199209050625          3.5733
199209050630          3.5733
199209050635          3.5733
199209050640          3.5733
199209050645          3.5733
199209050650         3.57329
199209050655          3.5733
199209050700          3.5733
199209050705          3.5733
199209050710          3.5733
199209050715          3.5733
199209050720          3.5733
199209050725          3.5733
199209050730         3.57331
199209050735          3.5733
199209050740          3.5733
199209050745          3.5733
199209050750          3.5733
199209050755          3.5733
199209050800          3.5733
199209050805          3.5733
199209050810          3.5733
199209050815          3.5733
199209050820         3.57329
199209050825         3.57329
199209050830         3.57328
199209050835         3.57328
199209050840         3.57329
199209050845         3.57328
199209050850         3.57328
199209050855         3.57329
199209050900         3.57329
199209050905         3.57329
199209050910         3.57329
199209050915         3.57328
199209050920         3.57328
199209050925         3.57328
199209050930         3.57327
199209050935         3.57329
199209050940         3.57329
199209050945         3.57329
199209050950         3.57328
199209050955         3.57328
199209051000         3.57329
199209051005          3.5733
199209051010         3.57329
199209051015          3.5733
199209051020          3.5733
199209051025         3.57329
199209051030         3.57329
199209051035         3.57328
199209051040         3.57327
199209051045         3.57327
199209051050         3.57328
199209051055         3.57329
199209051100         3.57329
199209051105         3.57328
199209051110         3.57328
199209051115         3.57329
199209051120         3.57329
199209051125         3.57329
199209051130          3.5733
199209051135          3.5733
199209051140          3.5733
199209051145          3.5733
199209051150          3.5733
199209051155          3.5733
199209051200          3.5733
199209051205         3.57329
199209051210         3.57328
199209051215         3.57328
199209051220         3.57328
199209051225         3.57328
199209051230         3.57328
199209051235         3.57328
199209051240         3.57329
199209051245         3.57329
199209051250         3.57329
199209051255         3.57329
199209051300         3.57329
199209051305         3.57329
199209051310         3.57329
199209051315         3.57329
199209051320         3.57328
199209051325         3.57328
199209051330         3.57328
199209051335         3.57328
199209051340         3.57329
199209051345         3.57329
199209051350         3.57329
199209051355          3.5733
199209051400         3.57329
199209051405          3.5733
199209051410          3.5733
199209051415         3.57329
199209051420         3.57329
199209051425         3.57329
199209051430         3.57329
199209051435         3.57329
199209051440         3.57329
199209051445         3.57329
199209051450          3.5733
199209051455          3.5733
199209051500          3.5733
199209051505          3.5733
199209051510          3.5733
199209051515         3.57329
199209051520         3.57329
199209051525          3.5733
199209051530          3.5733
199209051535          3.5733
199209051540          3.5733
199209051545          3.5733
199209051550          3.5733
199209051555         3.57329
199209051600         3.57328
199209051605         3.57328
199209051610         3.57329
199209051615         3.57329
199209051620          3.5733
199209051625          3.5733
199209051630          3.5733
199209051635          3.5733
199209051640          3.5733
199209051645          3.5733
199209051650          3.5733
199209051655          3.5733
199209051700         3.57329
199209051705         3.57328
199209051710         3.57328
199209051715         3.57329
199209051720         3.57328
199209051725         3.57328
199209051730         3.57329
199209051735         3.57329
199209051740         3.57329
199209051745         3.57328
199209051750         3.57328
199209051755         3.57329
199209051800         3.57329
199209051805         3.57328
199209051810         3.57328
199209051815         3.57328
199209051820         3.57328
199209051825         3.57328
199209051830         3.57328
199209051835         3.57328
199209051840         3.57328
199209051845         3.57327
199209051850         3.57328
199209051855         3.57328
199209051900         3.57328
199209051905         3.57328
199209051910         3.57329
199209051915         3.57329
199209051920         3.57329
199209051925         3.57329
199209051930         3.57329
199209051935         3.57328
199209051940         3.57328
199209051945         3.57328
199209051950         3.57329
199209051955         3.57329
199209052000         3.57329
199209052005         3.57329
199209052010         3.57329
199209052015         3.57329
199209052020         3.57328
199209052025         3.57327
199209052030         3.57328
199209052035         3.57329
199209052040         3.57329
199209052045         3.57329
199209052050          3.5733
199209052055          3.5733
199209052100          3.5733
199209052105          3.5733
199209052110         3.57329
199209052115         3.57329
199209052120         3.57329
199209052125          3.5733
199209052130          3.5733
199209052135          3.5733
199209052140         3.57329
199209052145         3.57328
199209052150         3.57328
199209052155         3.57328
199209052200         3.57327
199209052205         3.57326
199209052210         3.57328
199209052215         3.57328
199209052220         3.57328
199209052225         3.57329
199209052230         3.57328
199209052235         3.57327
199209052240         3.57329
199209052245          3.5733
199209052250         3.57329
199209052255         3.57329
199209052300         3.57329
199209052305         3.57329
199209052310          3.5733
199209052315         3.57329
199209052320         3.57329
199209052325          3.5733
199209052330          3.5733
199209052335          3.5733
199209052340          3.5733
199209052345          3.5733
199209052350          3.5733
199209052355          3.5733
199209060000         3.57329
199209060005         3.57329
199209060010         3.57329
199209060015         3.57328
199209060020         3.57328
199209060025         3.57328
199209060030         3.57328
199209060035         3.57328
199209060040         3.57327
199209060045         3.57328
199209060050         3.57329
199209060055         3.57329
199209060100         3.57329
199209060105         3.57329
199209060110         3.57329
199209060115         3.57329
199209060120         3.57328
199209060125         3.57327
199209060130         3.57327
199209060135         3.57328
199209060140         3.57328
199209060145         3.57328
199209060150         3.57329
199209060155         3.57329
199209060200         3.57329
199209060205         3.57327
199209060210         3.57327
199209060215         3.57328
199209060220         3.57328
199209060225         3.57328
199209060230         3.57329
199209060235         3.57329
199209060240         3.57329
199209060245         3.57329
199209060250         3.57329
199209060255          3.5733
199209060300         3.57329
199209060305         3.57327
199209060310         3.57327
199209060315         3.57328
199209060320          3.5733
199209060325         3.57329
199209060330         3.57328
199209060335         3.57329
199209060340         3.57329
199209060345         3.57329
199209060350         3.57329
199209060355         3.57327
199209060400         3.57325
199209060405         3.57326
199209060410         3.57327
199209060415         3.57328
199209060420         3.57329
199209060425         3.57328
199209060430         3.57327
199209060435         3.57326
199209060440         3.57326
199209060445         3.57328
199209060450         3.57328
199209060455         3.57328
199209060500         3.57329
199209060505         3.57329
199209060510         3.57329
199209060515         3.57329
199209060520          3.5733
199209060525          3.5733
199209060530          3.5733
199209060535         3.57331
199209060540          3.5733
199209060545          3.5733
199209060550          3.5733
199209060555          3.5733
199209060600          3.5733
199209060605          3.5733
199209060610         3.57331
199209060615          3.5733
199209060620          3.5733
199209060625          3.5733
199209060630         3.57329
199209060635         3.57328
199209060640          3.5733
199209060645          3.5733
199209060650         3.57329
199209060655         3.57329
199209060700         3.57328
199209060705         3.57328
199209060710         3.57328
199209060715         3.57327
199209060720         3.57327
199209060725         3.57328
199209060730         3.57327
199209060735         3.57327
199209060740         3.57327
199209060745         3.57327
199209060750         3.57328
199209060755         3.57327
199209060800         3.57328
199209060805         3.57329
199209060810         3.57329
199209060815          3.5733
199209060820          3.5733
199209060825          3.5733
199209060830          3.5733
199209060835         3.57331
199209060840          3.5733
199209060845         3.57331
199209060850         3.57331
199209060855         3.57331
199209060900         3.57331
199209060905         3.57331
199209060910          3.5733
199209060915          3.5733
199209060920          3.5733
199209060925          3.5733
199209060930         3.57329
199209060935          3.5733
199209060940         3.57329
199209060945         3.57328
199209060950         3.57327
199209060955         3.57328
199209061000         3.57329
199209061005         3.57328
199209061010         3.57328
199209061015         3.57329
199209061020         3.57329
199209061025         3.57329
199209061030         3.57328
199209061035         3.57326
199209061040         3.57326
199209061045         3.57328
199209061050         3.57327
199209061055         3.57327
199209061100         3.57328
199209061105         3.57327
199209061110         3.57328
199209061115         3.57329
199209061120         3.57329
199209061125          3.5733
199209061130          3.5733
199209061135          3.5733
199209061140         3.57331
199209061145          3.5733
199209061150          3.5733
199209061155          3.5733
199209061200         3.57329
199209061205         3.57329
199209061210          3.5733
199209061215          3.5733
199209061220          3.5733
199209061225          3.5733
199209061230          3.5733
199209061235         3.57329
199209061240         3.57329
199209061245         3.57329
199209061250         3.57328
199209061255         3.57328
199209061300         3.57329
199209061305         3.57329
199209061310         3.57329
199209061315          3.5733
199209061320          3.5733
199209061325          3.5733
199209061330          3.5733
199209061335          3.5733
199209061340          3.5733
199209061345         3.57331
199209061350         3.57331
199209061355          3.5733
199209061400          3.5733
199209061405         3.57329
199209061410         3.57329
199209061415          3.5733
199209061420         3.57329
199209061425         3.57329
199209061430         3.57328
199209061435         3.57329
199209061440          3.5733
199209061445         3.57329
199209061450         3.57328
199209061455         3.57327
199209061500         3.57327
199209061505         3.57329
199209061510         3.57328
199209061515         3.57328
199209061520         3.57327
199209061525         3.57326
199209061530         3.57327
199209061535         3.57327
199209061540         3.57326
199209061545         3.57326
199209061550         3.57328
199209061555         3.57328
199209061600         3.57328
199209061605         3.57329
199209061610          3.5733
199209061615          3.5733
199209061620          3.5733
199209061625          3.5733
199209061630          3.5733
199209061635          3.5733
199209061640         3.57329
199209061645         3.57329
199209061650         3.57327
199209061655         3.57327
199209061700         3.57329
199209061705         3.57329
199209061710         3.57328
199209061715         3.57328
199209061720         3.57328
199209061725         3.57327
199209061730         3.57327
199209061735         3.57327
199209061740         3.57327
199209061745         3.57328
199209061750         3.57329
199209061755         3.57328
199209061800         3.57329
199209061805         3.57328
199209061810         3.57329
199209061815         3.57329
199209061820         3.57327
199209061825         3.57328
199209061830         3.57329
199209061835         3.57328
199209061840         3.57328
199209061845         3.57328
199209061850         3.57327
199209061855         3.57329
199209061900         3.57329
199209061905         3.57329
199209061910          3.5733
199209061915          3.5733
199209061920          3.5733
199209061925          3.5733
199209061930          3.5733
199209061935         3.57329
199209061940         3.57329
199209061945          3.5733
199209061950         3.57329
199209061955         3.57329
199209062000          3.5733
199209062005          3.5733
199209062010          3.5733
199209062015          3.5733
199209062020          3.5733
199209062025          3.5733
199209062030          3.5733
199209062035          3.5733
199209062040         3.57331
199209062045         3.57331
199209062050          3.5733
199209062055         3.57331
199209062100         3.57331
199209062105          3.5733
199209062110         3.57329
199209062115          3.5733
199209062120          3.5733
199209062125          3.5733
199209062130          3.5733
199209062135         3.57329
199209062140         3.57327
199209062145         3.57327
199209062150         3.57329
199209062155         3.57329
199209062200         3.57329
199209062205         3.57329
199209062210         3.57329
199209062215         3.57329
199209062220         3.57328
199209062225         3.57328
199209062230         3.57329
199209062235         3.57329
199209062240         3.57329
199209062245          3.5733
199209062250          3.5733
199209062255          3.5733
199209062300         3.57331
199209062305         3.57331
199209062310         3.57331
199209062315         3.57331
199209062320         3.57331
199209062325          3.5733
199209062330          3.5733
199209062335          3.5733
199209062340          3.5733
199209062345          3.5733
199209062350          3.5733
199209062355         3.57328
199209070000         3.57328
199209070005         3.57329
199209070010         3.57328
199209070015         3.57327
199209070020         3.57327
199209070025         3.57328
199209070030         3.57328
199209070035         3.57328
199209070040         3.57329
199209070045         3.57329
199209070050         3.57329
199209070055         3.57329
199209070100          3.5733
199209070105          3.5733
199209070110          3.5733
199209070115         3.57329
199209070120         3.57329
199209070125         3.57328
199209070130         3.57328
199209070135         3.57328
199209070140         3.57328
199209070145         3.57329
199209070150         3.57329
199209070155         3.57328
199209070200         3.57328
199209070205         3.57328
199209070210         3.57328
199209070215         3.57329
199209070220         3.57329
199209070225          3.5733
199209070230          3.5733
199209070235          3.5733
199209070240          3.5733
199209070245          3.5733
199209070250         3.57329
199209070255         3.57328
199209070300         3.57329
199209070305          3.5733
199209070310         3.57329
199209070315         3.57329
199209070320         3.57327
199209070325         3.57326
199209070330         3.57327
199209070335         3.57328
199209070340         3.57327
199209070345         3.57326
199209070350         3.57326
199209070355         3.57328
199209070400         3.57328
199209070405         3.57328
199209070410         3.57328
199209070415         3.57327
199209070420         3.57327
199209070425         3.57328
199209070430         3.57329
199209070435         3.57329
199209070440         3.57329
199209070445         3.57329
199209070450         3.57329
199209070455         3.57329
199209070500         3.57329
199209070505         3.57329
199209070510         3.57328
199209070515         3.57327
199209070520         3.57326
199209070525         3.57328
199209070530         3.57329
199209070535         3.57329
199209070540         3.57329
199209070545         3.57329
199209070550          3.5733
199209070555          3.5733
199209070600          3.5733
199209070605         3.57329
199209070610         3.57328
199209070615         3.57326
199209070620         3.57326
199209070625         3.57328
199209070630         3.57328
199209070635         3.57328
199209070640         3.57328
199209070645         3.57328
199209070650         3.57329
199209070655         3.57328
199209070700         3.57328
199209070705         3.57329
199209070710         3.57329
199209070715         3.57329
199209070720         3.57329
199209070725          3.5733
199209070730          3.5733
199209070735         3.57329
199209070740          3.5733
199209070745          3.5733
199209070750          3.5733
199209070755          3.5733
199209070800          3.5733
199209070805          3.5733
199209070810          3.5733
199209070815         3.57329
199209070820         3.57329
199209070825         3.57329
199209070830         3.57328
199209070835         3.57329
199209070840         3.57329
199209070845         3.57329
199209070850         3.57329
199209070855         3.57329
199209070900         3.57328
199209070905         3.57328
199209070910         3.57329
199209070915         3.57329
199209070920         3.57329
199209070925          3.5733
199209070930          3.5733
199209070935          3.5733
199209070940         3.57331
199209070945          3.5733
199209070950          3.5733
199209070955          3.5733
199209071000         3.57331
199209071005         3.57331
199209071010          3.5733
199209071015          3.5733
199209071020         3.57329
199209071025         3.57329
199209071030         3.57329
199209071035         3.57328
199209071040         3.57327
199209071045         3.57328
199209071050         3.57328
199209071055         3.57327
199209071100         3.57327
199209071105         3.57328
199209071110         3.57327
199209071115         3.57326
199209071120         3.57328
199209071125         3.57329
199209071130         3.57329
199209071135         3.57329
199209071140          3.5733
199209071145          3.5733
199209071150          3.5733
199209071155         3.57329
199209071200         3.57329
199209071205         3.57328
199209071210         3.57329
199209071215          3.5733
199209071220          3.5733
199209071225          3.5733
199209071230          3.5733
199209071235          3.5733
199209071240          3.5733
199209071245         3.57331
199209071250          3.5733
199209071255          3.5733
199209071300          3.5733
199209071305         3.57329
199209071310         3.57327
199209071315         3.57327
199209071320         3.57329
199209071325         3.57329
199209071330         3.57329
199209071335         3.57329
199209071340         3.57329
199209071345         3.57329
199209071350          3.5733
199209071355          3.5733
199209071400          3.5733
199209071405          3.5733
199209071410          3.5733
199209071415          3.5733
199209071420          3.5733
199209071425          3.5733
199209071430         3.57331
199209071435          3.5733
199209071440          3.5733
199209071445          3.5733
199209071450          3.5733
199209071455          3.5733
199209071500          3.5733
199209071505          3.5733
199209071510          3.5733
199209071515          3.5733
199209071520          3.5733
199209071525          3.5733
199209071530         3.57329
199209071535         3.57329
199209071540          3.5733
199209071545          3.5733
199209071550          3.5733
199209071555          3.5733
199209071600          3.5733
199209071605         3.57329
199209071610         3.57329
199209071615         3.57329
199209071620         3.57329
199209071625         3.57328
199209071630         3.57328
199209071635         3.57328
199209071640         3.57328
199209071645         3.57329
199209071650         3.57329
199209071655         3.57329
199209071700         3.57329
199209071705         3.57329
199209071710         3.57329
199209071715         3.57329
199209071720         3.57329
199209071725         3.57329
199209071730         3.57328
199209071735         3.57327
199209071740         3.57328
199209071745         3.57328
199209071750         3.57328
199209071755         3.57329
199209071800         3.57329
199209071805         3.57329
199209071810          3.5733
199209071815         3.57329
199209071820         3.57329
199209071825         3.57329
199209071830         3.57329
199209071835         3.57329
199209071840          3.5733
199209071845          3.5733
199209071850         3.57329
199209071855         3.57329
199209071900         3.57327
199209071905         3.57327
199209071910         3.57329
199209071915         3.57329
199209071920         3.57329
199209071925         3.57329
199209071930         3.57329
199209071935         3.57329
199209071940         3.57329
199209071945          3.5733
199209071950          3.5733
199209071955          3.5733
199209072000          3.5733
199209072005          3.5733
199209072010          3.5733
199209072015          3.5733
199209072020          3.5733
199209072025         3.57329
199209072030         3.57328
199209072035         3.57327
199209072040         3.57327
199209072045         3.57327
199209072050         3.57328
199209072055         3.57329
199209072100         3.57329
199209072105         3.57329
199209072110         3.57329
199209072115         3.57329
199209072120         3.57329
199209072125         3.57328
199209072130         3.57328
199209072135         3.57329
199209072140         3.57328
199209072145         3.57328
199209072150         3.57328
199209072155         3.57328
199209072200         3.57327
199209072205         3.57328
199209072210         3.57329
199209072215         3.57329
199209072220         3.57329
199209072225         3.57329
199209072230         3.57329
199209072235          3.5733
199209072240         3.57329
199209072245         3.57328
199209072250         3.57327
199209072255         3.57328
199209072300         3.57329
199209072305         3.57328
199209072310         3.57328
199209072315         3.57328
199209072320         3.57328
199209072325          3.5733
199209072330         3.57329
199209072335         3.57329
199209072340         3.57328
199209072345         3.57327
199209072350         3.57327
199209072355         3.57327
199209080000         3.57327
199209080005         3.57327
199209080010         3.57328
199209080015         3.57328
199209080020         3.57327
199209080025         3.57326
199209080030         3.57327
199209080035         3.57328
199209080040         3.57328
199209080045         3.57329
199209080050         3.57329
199209080055         3.57329
199209080100         3.57329
199209080105          3.5733
199209080110          3.5733
199209080115          3.5733
199209080120          3.5733
199209080125         3.57331
199209080130         3.57331
199209080135          3.5733
199209080140         3.57331
199209080145          3.5733
199209080150          3.5733
199209080155         3.57329
199209080200         3.57328
199209080205         3.57329
199209080210         3.57329
199209080215         3.57328
199209080220         3.57327
199209080225         3.57326
199209080230         3.57327
199209080235         3.57328
199209080240         3.57327
199209080245         3.57327
199209080250         3.57329
199209080255         3.57329
199209080300         3.57329
199209080305          3.5733
199209080310          3.5733
199209080315          3.5733
199209080320          3.5733
199209080325          3.5733
199209080330          3.5733
199209080335         3.57329
199209080340         3.57328
199209080345         3.57329
199209080350         3.57329
199209080355         3.57329
199209080400         3.57329
199209080405         3.57329
199209080410         3.57328
199209080415         3.57327
199209080420         3.57328
199209080425         3.57329
199209080430         3.57329
199209080435         3.57328
199209080440         3.57327
199209080445         3.57327
199209080450         3.57328
199209080455         3.57327
199209080500         3.57327
199209080505         3.57328
199209080510         3.57327
199209080515         3.57327
199209080520         3.57328
199209080525         3.57329
199209080530         3.57328
199209080535         3.57328
199209080540         3.57326
199209080545         3.57326
199209080550         3.57328
199209080555         3.57328
199209080600         3.57328
199209080605         3.57329
199209080610          3.5733
199209080615          3.5733
199209080620          3.5733
199209080625         3.57331
199209080630         3.57331
199209080635         3.57331
199209080640          3.5733
199209080645          3.5733
199209080650         3.57329
199209080655          3.5733
199209080700          3.5733
199209080705         3.57329
199209080710          3.5733
199209080715         3.57331
199209080720          3.5733
199209080725          3.5733
199209080730         3.57331
199209080735          3.5733
199209080740          3.5733
199209080745          3.5733
199209080750          3.5733
199209080755         3.57329
199209080800          3.5733
199209080805          3.5733
199209080810          3.5733
199209080815         3.57329
199209080820         3.57328
199209080825         3.57329
199209080830          3.5733
199209080835         3.57329
199209080840         3.57329
199209080845          3.5733
199209080850          3.5733
199209080855          3.5733
199209080900         3.57329
199209080905         3.57329
199209080910         3.57329
199209080915         3.57329
199209080920          3.5733
199209080925          3.5733
199209080930          3.5733
199209080935         3.57329
199209080940         3.57329
199209080945          3.5733
199209080950          3.5733
199209080955          3.5733
199209081000         3.57329
199209081005         3.57329
199209081010         3.57328
199209081015          3.5733
199209081020          3.5733
199209081025         3.57329
199209081030         3.57329
199209081035         3.57328
199209081040         3.57328
199209081045         3.57329
199209081050         3.57328
199209081055         3.57326
199209081100         3.57327
199209081105         3.57328
199209081110         3.57328
199209081115         3.57329
199209081120         3.57329
199209081125          3.5733
199209081130          3.5733
199209081135          3.5733
199209081140          3.5733
199209081145          3.5733
199209081150         3.57329
199209081155         3.57328
199209081200         3.57328
199209081205         3.57328
199209081210         3.57329
199209081215         3.57329
199209081220         3.57329
199209081225         3.57329
199209081230          3.5733
199209081235          3.5733
199209081240          3.5733
199209081245          3.5733
199209081250          3.5733
199209081255          3.5733
199209081300         3.57328
199209081305         3.57327
199209081310         3.57328
199209081315         3.57329
199209081320         3.57329
199209081325         3.57328
199209081330         3.57328
199209081335         3.57327
199209081340         3.57328
199209081345         3.57329
199209081350         3.57329
199209081355         3.57329
199209081400         3.57329
199209081405          3.5733
199209081410          3.5733
199209081415         3.57329
199209081420         3.57328
199209081425         3.57327
199209081430         3.57327
199209081435         3.57328
199209081440         3.57328
199209081445         3.57328
199209081450         3.57328
199209081455         3.57329
199209081500         3.57329
199209081505         3.57329
199209081510         3.57329
199209081515          3.5733
199209081520         3.57329
199209081525         3.57329
199209081530          3.5733
199209081535         3.57329
199209081540         3.57329
199209081545         3.57329
199209081550          3.5733
199209081555         3.57329
199209081600         3.57329
199209081605         3.57328
199209081610         3.57327
199209081615         3.57328
199209081620         3.57328
199209081625         3.57328
199209081630         3.57327
199209081635         3.57328
199209081640         3.57329
199209081645         3.57328
199209081650         3.57329
199209081655          3.5733
199209081700          3.5733
199209081705          3.5733
199209081710          3.5733
199209081715         3.57329
199209081720         3.57329
199209081725         3.57328
199209081730         3.57327
199209081735         3.57328
199209081740         3.57328
199209081745         3.57328
199209081750         3.57329
199209081755         3.57329
199209081800         3.57329
199209081805         3.57327
199209081810         3.57327
199209081815         3.57329
199209081820         3.57329
199209081825         3.57328
199209081830         3.57329
199209081835         3.57329
199209081840         3.57329
199209081845         3.57328
199209081850         3.57329
199209081855          3.5733
199209081900         3.57329
199209081905         3.57329
199209081910         3.57329
199209081915         3.57329
199209081920         3.57329
199209081925         3.57329
199209081930          3.5733
199209081935          3.5733
199209081940          3.5733
199209081945          3.5733
199209081950          3.5733
199209081955          3.5733
199209082000          3.5733
199209082005          3.5733
199209082010          3.5733
199209082015         3.57329
199209082020          3.5733
199209082025          3.5733
199209082030          3.5733
199209082035          3.5733
199209082040         3.57331
199209082045         3.57331
199209082050          3.5733
199209082055          3.5733
199209082100         3.57329
199209082105         3.57327
199209082110         3.57327
199209082115         3.57328
199209082120         3.57329
199209082125         3.57329
199209082130         3.57329
199209082135         3.57329
199209082140          3.5733
199209082145          3.5733
199209082150          3.5733
199209082155          3.5733
199209082200         3.57329
199209082205         3.57329
199209082210          3.5733
199209082215          3.5733
199209082220         3.57329
199209082225         3.57329
199209082230         3.57329
199209082235          3.5733
199209082240          3.5733
199209082245          3.5733
199209082250          3.5733
199209082255          3.5733
199209082300         3.57329
199209082305         3.57329
199209082310         3.57329
199209082315          3.5733
199209082320         3.57329
199209082325          3.5733
199209082330         3.57329
199209082335         3.57329
199209082340         3.57328
199209082345         3.57327
199209082350         3.57328
199209082355         3.57328
199209090000         3.57328
199209090005         3.57328
199209090010         3.57329
199209090015         3.57329
199209090020         3.57329
199209090025         3.57328
199209090030         3.57328
199209090035         3.57328
199209090040         3.57329
199209090045         3.57329
199209090050         3.57329
199209090055         3.57329
199209090100         3.57329
199209090105         3.57329
199209090110         3.57329
199209090115         3.57329
199209090120         3.57328
199209090125         3.57328
199209090130         3.57328
199209090135         3.57329
199209090140          3.5733
199209090145         3.57329
199209090150          3.5733
199209090155          3.5733
199209090200          3.5733
199209090205          3.5733
199209090210          3.5733
199209090215          3.5733
199209090220          3.5733
199209090225         3.57329
199209090230         3.57329
199209090235         3.57328
199209090240         3.57328
199209090245         3.57329
199209090250         3.57328
199209090255         3.57328
199209090300         3.57329
199209090305         3.57329
199209090310         3.57328
199209090315         3.57329
199209090320         3.57329
199209090325         3.57329
199209090330         3.57329
199209090335         3.57328
199209090340         3.57329
199209090345         3.57329
199209090350         3.57329
199209090355         3.57329
199209090400         3.57328
199209090405         3.57329
199209090410         3.57329
199209090415         3.57329
199209090420         3.57329
199209090425         3.57329
199209090430         3.57329
199209090435         3.57329
199209090440         3.57329
199209090445         3.57328
199209090450         3.57326
199209090455         3.57327
199209090500         3.57328
199209090505         3.57328
199209090510         3.57327
199209090515         3.57328
199209090520         3.57329
199209090525         3.57329
199209090530         3.57329
199209090535          3.5733
199209090540         3.57329
199209090545          3.5733
199209090550          3.5733
199209090555          3.5733
199209090600          3.5733
199209090605          3.5733
199209090610          3.5733
199209090615         3.57329
199209090620         3.57329
199209090625         3.57329
199209090630         3.57329
199209090635         3.57329
199209090640         3.57329
199209090645         3.57329
199209090650         3.57329
199209090655          3.5733
199209090700         3.57329
199209090705         3.57329
199209090710         3.57329
199209090715         3.57329
199209090720         3.57328
199209090725         3.57326
199209090730         3.57325
199209090735         3.57327
199209090740         3.57326
199209090745         3.57326
199209090750         3.57327
199209090755         3.57328
199209090800         3.57328
199209090805         3.57329
199209090810         3.57329
199209090815         3.57329
199209090820         3.57329
199209090825          3.5733
199209090830          3.5733
199209090835         3.57329
199209090840         3.57329
199209090845         3.57329
199209090850         3.57329
199209090855         3.57328
199209090900         3.57328
199209090905         3.57329
199209090910         3.57328
199209090915         3.57328
199209090920         3.57329
199209090925         3.57329
199209090930         3.57329
199209090935          3.5733
199209090940         3.57329
199209090945         3.57329
199209090950         3.57329
199209090955          3.5733
199209091000          3.5733
199209091005          3.5733
199209091010          3.5733
199209091015          3.5733
199209091020         3.57331
199209091025         3.57331
199209091030          3.5733
199209091035         3.57329
199209091040         3.57329
199209091045         3.57329
199209091050          3.5733
199209091055          3.5733
199209091100          3.5733
199209091105          3.5733
199209091110          3.5733
199209091115          3.5733
199209091120          3.5733
199209091125          3.5733
199209091130          3.5733
199209091135          3.5733
199209091140          3.5733
199209091145          3.5733
199209091150          3.5733
199209091155          3.5733
199209091200          3.5733
199209091205          3.5733
199209091210          3.5733
199209091215          3.5733
199209091220         3.57329
199209091225         3.57329
199209091230         3.57329
199209091235         3.57328
199209091240         3.57329
199209091245         3.57329
199209091250         3.57328
199209091255         3.57327
199209091300         3.57328
199209091305         3.57327
199209091310         3.57328
199209091315         3.57328
199209091320         3.57328
199209091325         3.57329
199209091330         3.57329
199209091335          3.5733
199209091340          3.5733
199209091345          3.5733
199209091350          3.5733
199209091355         3.57329
199209091400         3.57328
199209091405         3.57328
199209091410         3.57329
199209091415         3.57328
199209091420         3.57326
199209091425         3.57326
199209091430         3.57328
199209091435         3.57328
199209091440         3.57328
199209091445         3.57328
199209091450         3.57327
199209091455         3.57327
199209091500         3.57328
199209091505         3.57329
199209091510         3.57328
199209091515         3.57329
199209091520         3.57329
199209091525         3.57329
199209091530          3.5733
199209091535          3.5733
199209091540          3.5733
199209091545          3.5733
199209091550          3.5733
199209091555          3.5733
199209091600          3.5733
199209091605          3.5733
199209091610          3.5733
199209091615          3.5733
199209091620         3.57329
199209091625         3.57328
199209091630         3.57327
199209091635         3.57327
199209091640         3.57328
199209091645         3.57328
199209091650         3.57328
199209091655         3.57328
199209091700         3.57326
199209091705         3.57325
199209091710         3.57327
199209091715         3.57328
199209091720         3.57328
199209091725         3.57328
199209091730         3.57328
199209091735         3.57327
199209091740         3.57327
199209091745         3.57328
199209091750         3.57328
199209091755         3.57328
199209091800         3.57329
199209091805         3.57329
199209091810         3.57329
199209091815          3.5733
199209091820         3.57329
199209091825         3.57329
199209091830         3.57329
199209091835         3.57329
199209091840         3.57329
199209091845         3.57328
199209091850         3.57328
199209091855         3.57328
199209091900         3.57327
199209091905         3.57328
199209091910         3.57328
199209091915         3.57328
199209091920         3.57329
199209091925         3.57329
199209091930         3.57328
199209091935         3.57329
199209091940         3.57329
199209091945         3.57329
199209091950         3.57329
199209091955         3.57329
199209092000         3.57328
199209092005         3.57327
199209092010         3.57328
199209092015         3.57328
199209092020         3.57327
199209092025         3.57326
199209092030         3.57326
199209092035         3.57329
199209092040         3.57329
199209092045         3.57329
199209092050          3.5733
199209092055         3.57329
199209092100          3.5733
199209092105         3.57329
199209092110         3.57327
199209092115         3.57328
199209092120         3.57329
199209092125         3.57329
199209092130         3.57328
199209092135         3.57328
199209092140         3.57328
199209092145         3.57328
199209092150         3.57328
199209092155         3.57329
199209092200         3.57328
199209092205         3.57328
199209092210         3.57328
199209092215         3.57328
199209092220         3.57329
199209092225         3.57329
199209092230         3.57329
199209092235          3.5733
199209092240          3.5733
199209092245          3.5733
199209092250         3.57329
199209092255         3.57329
199209092300          3.5733
199209092305         3.57329
199209092310         3.57329
199209092315          3.5733
199209092320          3.5733
199209092325          3.5733
199209092330          3.5733
199209092335         3.57331
199209092340         3.57331
199209092345         3.57331
199209092350         3.57331
199209092355         3.57331
199209100000         3.57331
