#------------------------------------------------------
# Deltares, D-Flow FM Version 1.1.35.22725:22731M, Oct 11 2012, 12:57:19
# Created on 2012-12-06T16:27:57+0100, D-Flow FM
#------------------------------------------------------
# Location    : Obs01
# Position    : (67,2)
# Source      : model
# Unit        : waterlevel
# Analyse time: most recent
# Timezone    : GMT
#------------------------------------------------------
199208310000               0
199208310005               0
199208310010               0
199208310015     9.90606e-11
199208310020     3.74446e-06
199208310025     0.000347144
199208310030      0.00659157
199208310035       0.0496804
199208310040        0.253573
199208310045        0.687487
199208310050        0.924202
199208310055         1.22341
199208310100          1.5745
199208310105         1.87516
199208310110         2.11382
199208310115         2.30967
199208310120         2.47738
199208310125         2.61455
199208310130         2.71209
199208310135         2.78734
199208310140         2.85753
199208310145         2.93246
199208310150         3.01287
199208310155         3.09572
199208310200         3.17686
199208310205         3.25579
199208310210         3.33324
199208310215         3.40914
199208310220         3.48176
199208310225         3.54947
199208310230          3.6129
199208310235          3.6725
199208310240         3.72676
199208310245         3.77555
199208310250         3.81847
199208310255         3.85639
199208310300          3.8929
199208310305         3.92979
199208310310         3.96062
199208310315         3.98605
199208310320         4.01379
199208310325         4.04326
199208310330         4.06872
199208310335          4.0951
199208310340         4.12034
199208310345         4.14395
199208310350         4.16682
199208310355         4.18965
199208310400         4.21215
199208310405         4.23293
199208310410          4.2537
199208310415          4.2738
199208310420         4.29412
199208310425         4.31341
199208310430         4.33149
199208310435         4.35058
199208310440         4.36832
199208310445         4.38486
199208310450         4.40144
199208310455         4.41834
199208310500         4.43379
199208310505         4.44828
199208310510         4.46273
199208310515         4.47752
199208310520         4.49114
199208310525         4.50502
199208310530         4.51812
199208310535          4.5307
199208310540         4.54374
199208310545          4.5561
199208310550         4.56882
199208310555         4.58077
199208310600         4.59282
199208310605         4.60524
199208310610         4.61659
199208310615         4.62904
199208310620         4.64176
199208310625         4.65419
199208310630         4.66675
199208310635          4.6792
199208310640         4.69159
199208310645         4.70405
199208310650         4.71604
199208310655          4.7286
199208310700          4.7406
199208310705         4.75244
199208310710         4.76486
199208310715         4.77651
199208310720         4.78745
199208310725         4.79924
199208310730         4.81015
199208310735         4.82069
199208310740         4.83179
199208310745         4.84211
199208310750         4.85247
199208310755          4.8625
199208310800         4.87256
199208310805         4.88223
199208310810         4.89179
199208310815         4.90125
199208310820         4.91032
199208310825         4.91938
199208310830         4.92803
199208310835           4.937
199208310840         4.94511
199208310845         4.95373
199208310850         4.96162
199208310855         4.96975
199208310900          4.9774
199208310905         4.98545
199208310910         4.99251
199208310915          5.0001
199208310920         5.00736
199208310925          5.0142
199208310930         5.02135
199208310935         5.02818
199208310940         5.03477
199208310945         5.04135
199208310950         5.04816
199208310955         5.05422
199208311000          5.0601
199208311005         5.06696
199208311010         5.07231
199208311015          5.0783
199208311020         5.08353
199208311025         5.08936
199208311030         5.09529
199208311035         5.09987
199208311040         5.10546
199208311045         5.11064
199208311050         5.11562
199208311055         5.12033
199208311100         5.12545
199208311105         5.13016
199208311110         5.13457
199208311115         5.13914
199208311120         5.14396
199208311125         5.14844
199208311130         5.15229
199208311135         5.15654
199208311140         5.16078
199208311145         5.16448
199208311150         5.16847
199208311155         5.17227
199208311200         5.17598
199208311205          5.1795
199208311210         5.18351
199208311215         5.18673
199208311220         5.18993
199208311225         5.19364
199208311230         5.19671
199208311235         5.20004
199208311240         5.20284
199208311245         5.20623
199208311250         5.20895
199208311255         5.21194
199208311300         5.21493
199208311305         5.21745
199208311310         5.22044
199208311315         5.22273
199208311320         5.22574
199208311325         5.22787
199208311330          5.2305
199208311335         5.23297
199208311340         5.23516
199208311345         5.23746
199208311350         5.23988
199208311355         5.24171
199208311400         5.24424
199208311405         5.24596
199208311410         5.24822
199208311415         5.25013
199208311420         5.25187
199208311425         5.25398
199208311430         5.25563
199208311435         5.25745
199208311440         5.25929
199208311445         5.26091
199208311450         5.26265
199208311455         5.26415
199208311500         5.26564
199208311505         5.26736
199208311510         5.26874
199208311515          5.2701
199208311520         5.27163
199208311525         5.27291
199208311530         5.27436
199208311535         5.27551
199208311540         5.27699
199208311545         5.27805
199208311550         5.27961
199208311555         5.28033
199208311600         5.28193
199208311605         5.28267
199208311610           5.284
199208311615         5.28506
199208311620         5.28602
199208311625           5.287
199208311630         5.28818
199208311635          5.2888
199208311640         5.29007
199208311645         5.29071
199208311650          5.2918
199208311655         5.29268
199208311700          5.2935
199208311705         5.29421
199208311710         5.29508
199208311715          5.2958
199208311720          5.2966
199208311725          5.2973
199208311730         5.29813
199208311735         5.29867
199208311740         5.29947
199208311745         5.30012
199208311750         5.30079
199208311755         5.30129
199208311800         5.30222
199208311805         5.30247
199208311810         5.30346
199208311815         5.30356
199208311820         5.30463
199208311825         5.30462
199208311830         5.30595
199208311835         5.30599
199208311840         5.30651
199208311845         5.30688
199208311850         5.30751
199208311855          5.3078
199208311900         5.30846
199208311905         5.30859
199208311910         5.30941
199208311915          5.3095
199208311920         5.31013
199208311925         5.31029
199208311930         5.31096
199208311935         5.31105
199208311940         5.31169
199208311945         5.31171
199208311950         5.31264
199208311955         5.31247
199208312000         5.31295
199208312005         5.31328
199208312010          5.3138
199208312015         5.31405
199208312020         5.31412
199208312025         5.31454
199208312030         5.31466
199208312035         5.31518
199208312040         5.31522
199208312045         5.31547
199208312050         5.31585
199208312055         5.31597
199208312100         5.31646
199208312105         5.31642
199208312110         5.31686
199208312115         5.31693
199208312120         5.31722
199208312125          5.3173
199208312130         5.31767
199208312135         5.31775
199208312140         5.31808
199208312145         5.31799
199208312150         5.31861
199208312155         5.31845
199208312200         5.31877
199208312205         5.31884
199208312210         5.31904
199208312215          5.3193
199208312220         5.31925
199208312225         5.31961
199208312230         5.31958
199208312235         5.31991
199208312240         5.31994
199208312245         5.32002
199208312250         5.32037
199208312255         5.32027
199208312300         5.32052
199208312305         5.32064
199208312310         5.32071
199208312315         5.32087
199208312320         5.32097
199208312325         5.32108
199208312330         5.32108
199208312335         5.32149
199208312340         5.32144
199208312345          5.3216
199208312350          5.3215
199208312355         5.32199
199209010000         5.32157
199209010005         5.32227
199209010010         5.32199
199209010015         5.32213
199209010020         5.32213
199209010025         5.32238
199209010030         5.32216
199209010035         5.32253
199209010040         5.32241
199209010045         5.32273
199209010050         5.32265
199209010055         5.32268
199209010100         5.32273
199209010105         5.32277
199209010110         5.32288
199209010115         5.32291
199209010120         5.32297
199209010125         5.32303
199209010130         5.32313
199209010135          5.3232
199209010140         5.32339
199209010145          5.3232
199209010150         5.32346
199209010155         5.32337
199209010200         5.32365
199209010205         5.32347
199209010210         5.32358
199209010215         5.32367
199209010220         5.32342
199209010225          5.3241
199209010230         5.32373
199209010235         5.32376
199209010240         5.32382
199209010245          5.3238
199209010250         5.32389
199209010255         5.32387
199209010300         5.32394
199209010305         5.32388
199209010310         5.32402
199209010315         5.32394
199209010320          5.3241
199209010325         5.32411
199209010330         5.32417
199209010335         5.32418
199209010340         5.32408
199209010345         5.32433
199209010350         5.32403
199209010355         5.32465
199209010400          5.3243
199209010405         5.32436
199209010410         5.32441
199209010415         5.32445
199209010420         5.32438
199209010425         5.32445
199209010430         5.32436
199209010435         5.32449
199209010440         5.32456
199209010445         5.32452
199209010450          5.3245
199209010455         5.32455
199209010500         5.32459
199209010505         5.32453
199209010510         5.32468
199209010515         5.32444
199209010520         5.32485
199209010525         5.32449
199209010530         5.32468
199209010535         5.32478
199209010540          5.3247
199209010545         5.32468
199209010550          5.3248
199209010555         5.32468
199209010600         5.32482
199209010605         5.32463
199209010610         5.32487
199209010615         5.32475
199209010620         5.32471
199209010625         5.32489
199209010630         5.32474
199209010635         5.32489
199209010640         5.32475
199209010645         5.32489
199209010650         5.32482
199209010655         5.32484
199209010700         5.32494
199209010705         5.32486
199209010710         5.32484
199209010715         5.32495
199209010720         5.32478
199209010725         5.32505
199209010730         5.32492
199209010735         5.32492
199209010740         5.32491
199209010745         5.32498
199209010750         5.32492
199209010755         5.32496
199209010800         5.32494
199209010805         5.32504
199209010810         5.32488
199209010815         5.32517
199209010820         5.32485
199209010825         5.32511
199209010830         5.32491
199209010835          5.3251
199209010840         5.32493
199209010845         5.32509
199209010850         5.32496
199209010855         5.32508
199209010900         5.32497
199209010905         5.32511
199209010910         5.32494
199209010915         5.32527
199209010920         5.32483
199209010925         5.32536
199209010930         5.32509
199209010935           5.325
199209010940         5.32525
199209010945          5.3249
199209010950          5.3256
199209010955         5.32493
199209011000         5.32521
199209011005         5.32507
199209011010          5.3251
199209011015         5.32519
199209011020         5.32509
199209011025         5.32512
199209011030         5.32517
199209011035          5.3251
199209011040          5.3251
199209011045         5.32517
199209011050         5.32509
199209011055         5.32522
199209011100         5.32534
199209011105         5.32511
199209011110         5.32514
199209011115         5.32519
199209011120         5.32516
199209011125         5.32506
199209011130         5.32534
199209011135         5.32517
199209011140         5.32521
199209011145         5.32521
199209011150         5.32524
199209011155         5.32535
199209011200         5.32502
199209011205         5.32542
199209011210         5.32514
199209011215          5.3251
199209011220         5.32549
199209011225         5.32503
199209011230         5.32527
199209011235         5.32516
199209011240         5.32522
199209011245         5.32512
199209011250         5.32524
199209011255         5.32513
199209011300         5.32527
199209011305         5.32505
199209011310         5.32532
199209011315         5.32516
199209011320         5.32514
199209011325         5.32538
199209011330         5.32509
199209011335         5.32525
199209011340         5.32522
199209011345          5.3252
199209011350          5.3252
199209011355         5.32522
199209011400         5.32513
199209011405         5.32528
199209011410         5.32511
199209011415         5.32533
199209011420           5.325
199209011425         5.32552
199209011430         5.32512
199209011435         5.32528
199209011440         5.32522
199209011445         5.32543
199209011450         5.32532
199209011455         5.32525
199209011500         5.32516
199209011505         5.32532
199209011510         5.32514
199209011515         5.32544
199209011520         5.32506
199209011525         5.32533
199209011530         5.32512
199209011535         5.32531
199209011540         5.32508
199209011545         5.32539
199209011550         5.32516
199209011555         5.32525
199209011600         5.32515
199209011605         5.32535
199209011610         5.32506
199209011615         5.32543
199209011620          5.3253
199209011625         5.32526
199209011630         5.32526
199209011635          5.3252
199209011640         5.32537
199209011645         5.32536
199209011650         5.32521
199209011655         5.32521
199209011700         5.32527
199209011705         5.32531
199209011710         5.32538
199209011715         5.32526
199209011720         5.32523
199209011725         5.32525
199209011730          5.3254
199209011735         5.32518
199209011740         5.32522
199209011745         5.32527
199209011750         5.32516
199209011755         5.32531
199209011800         5.32511
199209011805         5.32531
199209011810         5.32521
199209011815         5.32521
199209011820          5.3253
199209011825         5.32535
199209011830         5.32518
199209011835         5.32545
199209011840         5.32522
199209011845         5.32533
199209011850         5.32528
199209011855         5.32509
199209011900         5.32567
199209011905         5.32511
199209011910         5.32529
199209011915         5.32523
199209011920         5.32527
199209011925         5.32526
199209011930          5.3252
199209011935         5.32543
199209011940         5.32519
199209011945         5.32523
199209011950          5.3253
199209011955         5.32524
199209012000         5.32515
199209012005         5.32541
199209012010         5.32516
199209012015         5.32539
199209012020          5.3254
199209012025         5.32522
199209012030         5.32523
199209012035         5.32527
199209012040         5.32523
199209012045         5.32525
199209012050         5.32518
199209012055         5.32519
199209012100         5.32545
199209012105          5.3253
199209012110         5.32531
199209012115         5.32518
199209012120         5.32543
199209012125         5.32515
199209012130         5.32532
199209012135         5.32519
199209012140         5.32528
199209012145         5.32525
199209012150         5.32517
199209012155         5.32531
199209012200         5.32507
199209012205         5.32552
199209012210         5.32515
199209012215         5.32532
199209012220         5.32524
199209012225         5.32555
199209012230         5.32522
199209012235         5.32527
199209012240         5.32528
199209012245         5.32528
199209012250         5.32515
199209012255         5.32547
199209012300         5.32515
199209012305          5.3254
199209012310         5.32544
199209012315         5.32531
199209012320         5.32524
199209012325         5.32528
199209012330         5.32527
199209012335         5.32525
199209012340         5.32523
199209012345         5.32522
199209012350         5.32525
199209012355         5.32523
199209020000         5.32527
199209020005          5.3253
199209020010         5.32528
199209020015         5.32527
199209020020         5.32517
199209020025         5.32552
199209020030         5.32523
199209020035         5.32515
199209020040         5.32566
199209020045         5.32519
199209020050         5.32538
199209020055         5.32532
199209020100         5.32521
199209020105         5.32531
199209020110          5.3252
199209020115          5.3253
199209020120         5.32522
199209020125         5.32529
199209020130         5.32513
199209020135         5.32536
199209020140         5.32516
199209020145         5.32538
199209020150         5.32506
199209020155         5.32551
199209020200         5.32512
199209020205         5.32534
199209020210         5.32519
199209020215          5.3253
199209020220         5.32515
199209020225         5.32532
199209020230         5.32516
199209020235         5.32535
199209020240         5.32509
199209020245         5.32546
199209020250         5.32511
199209020255         5.32532
199209020300         5.32518
199209020305         5.32529
199209020310         5.32518
199209020315         5.32527
199209020320          5.3252
199209020325         5.32529
199209020330         5.32508
199209020335         5.32555
199209020340         5.32533
199209020345          5.3253
199209020350         5.32523
199209020355         5.32527
199209020400         5.32528
199209020405         5.32533
199209020410         5.32511
199209020415         5.32554
199209020420         5.32511
199209020425         5.32546
199209020430          5.3252
199209020435         5.32534
199209020440         5.32521
199209020445         5.32544
199209020450         5.32533
199209020455         5.32533
199209020500         5.32526
199209020505         5.32522
199209020510         5.32555
199209020515         5.32523
199209020520         5.32518
199209020525         5.32564
199209020530         5.32537
199209020535          5.3253
199209020540         5.32539
199209020545         5.32531
199209020550         5.32539
199209020555          5.3252
199209020600         5.32546
199209020605         5.32521
199209020610         5.32528
199209020615         5.32539
199209020620         5.32536
199209020625         5.32534
199209020630         5.32519
199209020635         5.32547
199209020640         5.32542
199209020645         5.32519
199209020650         5.32533
199209020655         5.32544
199209020700         5.32517
199209020705         5.32528
199209020710         5.32538
199209020715         5.32538
199209020720         5.32535
199209020725          5.3254
199209020730         5.32544
199209020735          5.3253
199209020740         5.32539
199209020745         5.32516
199209020750         5.32545
199209020755         5.32525
199209020800         5.32521
199209020805         5.32538
199209020810          5.3252
199209020815         5.32527
199209020820         5.32523
199209020825          5.3253
199209020830         5.32547
199209020835         5.32512
199209020840         5.32551
199209020845         5.32509
199209020850         5.32539
199209020855         5.32519
199209020900          5.3253
199209020905         5.32519
199209020910         5.32527
199209020915         5.32521
199209020920         5.32542
199209020925         5.32503
199209020930         5.32559
199209020935         5.32517
199209020940         5.32522
199209020945         5.32529
199209020950         5.32527
199209020955         5.32532
199209021000         5.32546
199209021005         5.32533
199209021010         5.32525
199209021015         5.32526
199209021020         5.32528
199209021025         5.32516
199209021030         5.32536
199209021035         5.32522
199209021040         5.32564
199209021045         5.32516
199209021050         5.32532
199209021055         5.32523
199209021100          5.3254
199209021105         5.32541
199209021110         5.32531
199209021115         5.32525
199209021120         5.32524
199209021125         5.32534
199209021130         5.32515
199209021135         5.32557
199209021140         5.32509
199209021145         5.32538
199209021150         5.32524
199209021155         5.32516
199209021200         5.32559
199209021205         5.32526
199209021210          5.3253
199209021215         5.32539
199209021220         5.32519
199209021225         5.32545
199209021230         5.32519
199209021235         5.32523
199209021240         5.32546
199209021245         5.32513
199209021250         5.32542
199209021255         5.32514
199209021300         5.32528
199209021305          5.3253
199209021310         5.32527
199209021315         5.32527
199209021320         5.32516
199209021325         5.32537
199209021330         5.32517
199209021335          5.3254
199209021340         5.32519
199209021345         5.32521
199209021350         5.32532
199209021355         5.32515
199209021400         5.32532
199209021405         5.32518
199209021410         5.32528
199209021415         5.32527
199209021420         5.32531
199209021425         5.32532
199209021430         5.32514
199209021435         5.32542
199209021440         5.32541
199209021445         5.32523
199209021450         5.32541
199209021455         5.32536
199209021500         5.32524
199209021505         5.32528
199209021510         5.32523
199209021515         5.32521
199209021520         5.32541
199209021525         5.32533
199209021530         5.32523
199209021535          5.3252
199209021540         5.32538
199209021545         5.32516
199209021550         5.32527
199209021555         5.32527
199209021600          5.3253
199209021605         5.32519
199209021610         5.32524
199209021615         5.32529
199209021620         5.32513
199209021625         5.32538
199209021630         5.32505
199209021635         5.32557
199209021640         5.32526
199209021645         5.32521
199209021650          5.3253
199209021655         5.32521
199209021700         5.32533
199209021705         5.32523
199209021710         5.32547
199209021715         5.32527
199209021720         5.32539
199209021725          5.3253
199209021730         5.32524
199209021735         5.32525
199209021740         5.32527
199209021745          5.3252
199209021750         5.32525
199209021755         5.32525
199209021800         5.32523
199209021805         5.32522
199209021810         5.32522
199209021815         5.32529
199209021820          5.3253
199209021825         5.32514
199209021830         5.32538
199209021835         5.32517
199209021840         5.32531
199209021845         5.32532
199209021850         5.32525
199209021855         5.32532
199209021900          5.3252
199209021905         5.32543
199209021910         5.32522
199209021915          5.3255
199209021920          5.3252
199209021925         5.32532
199209021930         5.32517
199209021935         5.32531
199209021940         5.32523
199209021945         5.32526
199209021950         5.32515
199209021955          5.3253
199209022000         5.32536
199209022005         5.32543
199209022010         5.32517
199209022015         5.32546
199209022020         5.32513
199209022025         5.32534
199209022030         5.32522
199209022035         5.32538
199209022040         5.32511
199209022045         5.32537
199209022050         5.32513
199209022055         5.32532
199209022100         5.32517
199209022105         5.32528
199209022110         5.32517
199209022115         5.32533
199209022120         5.32514
199209022125          5.3253
199209022130         5.32518
199209022135         5.32527
199209022140         5.32514
199209022145         5.32528
199209022150          5.3253
199209022155         5.32543
199209022200         5.32528
199209022205         5.32525
199209022210         5.32539
199209022215         5.32519
199209022220          5.3254
199209022225         5.32515
199209022230          5.3255
199209022235         5.32507
199209022240         5.32542
199209022245         5.32516
199209022250         5.32527
199209022255         5.32534
199209022300         5.32519
199209022305         5.32525
199209022310         5.32532
199209022315         5.32546
199209022320         5.32524
199209022325         5.32519
199209022330         5.32548
199209022335         5.32517
199209022340         5.32539
199209022345         5.32552
199209022350         5.32516
199209022355         5.32533
199209030000         5.32523
199209030005         5.32526
199209030010         5.32525
199209030015         5.32524
199209030020         5.32523
199209030025         5.32539
199209030030          5.3252
199209030035         5.32541
199209030040         5.32531
199209030045         5.32523
199209030050          5.3253
199209030055         5.32516
199209030100         5.32538
199209030105         5.32521
199209030110         5.32526
199209030115         5.32536
199209030120         5.32519
199209030125         5.32528
199209030130          5.3253
199209030135         5.32518
199209030140         5.32546
199209030145         5.32525
199209030150         5.32515
199209030155         5.32561
199209030200         5.32516
199209030205         5.32544
199209030210         5.32528
199209030215         5.32527
199209030220         5.32536
199209030225         5.32525
199209030230         5.32519
199209030235         5.32539
199209030240         5.32517
199209030245         5.32533
199209030250          5.3254
199209030255         5.32521
199209030300         5.32527
199209030305         5.32531
199209030310         5.32517
199209030315         5.32555
199209030320         5.32511
199209030325         5.32528
199209030330         5.32526
199209030335         5.32522
199209030340         5.32535
199209030345         5.32543
199209030350         5.32527
199209030355         5.32529
199209030400         5.32526
199209030405         5.32527
199209030410         5.32518
199209030415         5.32535
199209030420         5.32517
199209030425         5.32538
199209030430         5.32516
199209030435         5.32523
199209030440         5.32523
199209030445         5.32535
199209030450         5.32544
199209030455         5.32524
199209030500          5.3253
199209030505         5.32524
199209030510         5.32528
199209030515         5.32519
199209030520         5.32535
199209030525         5.32518
199209030530         5.32529
199209030535         5.32522
199209030540         5.32519
199209030545         5.32531
199209030550         5.32514
199209030555         5.32532
199209030600         5.32518
199209030605         5.32532
199209030610         5.32523
199209030615         5.32525
199209030620         5.32523
199209030625         5.32533
199209030630         5.32513
199209030635         5.32542
199209030640         5.32528
199209030645         5.32524
199209030650          5.3252
199209030655         5.32541
199209030700         5.32535
199209030705         5.32525
199209030710         5.32528
199209030715         5.32532
199209030720         5.32527
199209030725         5.32516
199209030730         5.32541
199209030735         5.32509
199209030740         5.32564
199209030745          5.3251
199209030750         5.32527
199209030755         5.32525
199209030800         5.32526
199209030805         5.32539
199209030810         5.32521
199209030815         5.32522
199209030820         5.32531
199209030825         5.32516
199209030830          5.3253
199209030835         5.32519
199209030840         5.32525
199209030845         5.32541
199209030850         5.32513
199209030855          5.3255
199209030900          5.3252
199209030905         5.32556
199209030910          5.3251
199209030915         5.32542
199209030920         5.32521
199209030925         5.32549
199209030930          5.3255
199209030935         5.32513
199209030940         5.32541
199209030945         5.32521
199209030950          5.3252
199209030955         5.32566
199209031000         5.32526
199209031005         5.32526
199209031010          5.3254
199209031015         5.32548
199209031020         5.32525
199209031025         5.32533
199209031030         5.32519
199209031035          5.3255
199209031040         5.32505
199209031045         5.32554
199209031050         5.32505
199209031055         5.32578
199209031100         5.32501
199209031105         5.32538
199209031110          5.3253
199209031115         5.32555
199209031120         5.32519
199209031125         5.32527
199209031130         5.32532
199209031135         5.32524
199209031140         5.32524
199209031145         5.32538
199209031150         5.32517
199209031155         5.32533
199209031200         5.32516
199209031205         5.32538
199209031210         5.32519
199209031215         5.32548
199209031220         5.32531
199209031225         5.32533
199209031230         5.32515
199209031235          5.3254
199209031240          5.3252
199209031245         5.32539
199209031250         5.32515
199209031255         5.32533
199209031300         5.32515
199209031305         5.32536
199209031310         5.32516
199209031315         5.32537
199209031320         5.32506
199209031325         5.32563
199209031330         5.32508
199209031335         5.32541
199209031340         5.32509
199209031345         5.32548
199209031350         5.32516
199209031355         5.32528
199209031400         5.32522
199209031405          5.3253
199209031410         5.32512
199209031415         5.32549
199209031420          5.3253
199209031425         5.32525
199209031430         5.32542
199209031435         5.32509
199209031440         5.32554
199209031445         5.32531
199209031450         5.32524
199209031455         5.32528
199209031500         5.32528
199209031505         5.32541
199209031510         5.32513
199209031515         5.32538
199209031520         5.32525
199209031525         5.32528
199209031530         5.32517
199209031535         5.32544
199209031540         5.32534
199209031545         5.32525
199209031550         5.32531
199209031555         5.32526
199209031600         5.32524
199209031605         5.32528
199209031610         5.32525
199209031615         5.32528
199209031620         5.32518
199209031625         5.32527
199209031630         5.32527
199209031635         5.32517
199209031640         5.32531
199209031645         5.32515
199209031650         5.32534
199209031655         5.32513
199209031700         5.32547
199209031705         5.32502
199209031710         5.32558
199209031715         5.32515
199209031720         5.32534
199209031725         5.32518
199209031730         5.32523
199209031735         5.32542
199209031740         5.32529
199209031745         5.32532
199209031750          5.3252
199209031755         5.32534
199209031800         5.32518
199209031805         5.32533
199209031810         5.32517
199209031815         5.32527
199209031820         5.32516
199209031825         5.32546
199209031830         5.32532
199209031835         5.32523
199209031840          5.3253
199209031845          5.3253
199209031850         5.32521
199209031855          5.3253
199209031900         5.32517
199209031905         5.32528
199209031910         5.32522
199209031915         5.32533
199209031920         5.32536
199209031925         5.32528
199209031930         5.32533
199209031935         5.32516
199209031940         5.32536
199209031945         5.32518
199209031950         5.32527
199209031955         5.32522
199209032000         5.32529
199209032005         5.32511
199209032010         5.32545
199209032015         5.32539
199209032020         5.32512
199209032025         5.32539
199209032030         5.32529
199209032035         5.32535
199209032040         5.32516
199209032045         5.32551
199209032050         5.32515
199209032055         5.32528
199209032100         5.32537
199209032105         5.32526
199209032110         5.32537
199209032115         5.32511
199209032120         5.32555
199209032125         5.32522
199209032130         5.32523
199209032135         5.32529
199209032140          5.3252
199209032145         5.32532
199209032150         5.32513
199209032155         5.32534
199209032200         5.32516
199209032205         5.32527
199209032210         5.32521
199209032215          5.3253
199209032220         5.32518
199209032225         5.32523
199209032230          5.3253
199209032235         5.32521
199209032240         5.32518
199209032245         5.32545
199209032250         5.32524
199209032255         5.32525
199209032300         5.32525
199209032305         5.32535
199209032310          5.3253
199209032315         5.32512
199209032320         5.32544
199209032325         5.32514
199209032330         5.32533
199209032335         5.32515
199209032340         5.32532
199209032345         5.32518
199209032350         5.32537
199209032355         5.32538
199209040000         5.32534
199209040005         5.32522
199209040010         5.32525
199209040015         5.32533
199209040020         5.32523
199209040025         5.32527
199209040030         5.32534
199209040035         5.32521
199209040040         5.32524
199209040045         5.32524
199209040050         5.32526
199209040055         5.32522
199209040100         5.32535
199209040105         5.32512
199209040110         5.32537
199209040115         5.32512
199209040120         5.32535
199209040125         5.32518
199209040130         5.32524
199209040135         5.32525
199209040140         5.32525
199209040145         5.32527
199209040150         5.32539
199209040155         5.32523
199209040200         5.32516
199209040205         5.32558
199209040210         5.32531
199209040215         5.32524
199209040220         5.32534
199209040225         5.32518
199209040230         5.32538
199209040235         5.32523
199209040240         5.32521
199209040245         5.32522
199209040250         5.32525
199209040255         5.32534
199209040300          5.3254
199209040305         5.32524
199209040310         5.32523
199209040315          5.3253
199209040320         5.32516
199209040325         5.32534
199209040330         5.32526
199209040335         5.32517
199209040340         5.32529
199209040345         5.32523
199209040350         5.32518
199209040355         5.32531
199209040400         5.32515
199209040405         5.32539
199209040410         5.32506
199209040415         5.32547
199209040420         5.32509
199209040425         5.32544
199209040430         5.32515
199209040435         5.32525
199209040440         5.32538
199209040445         5.32535
199209040450          5.3253
199209040455          5.3254
199209040500         5.32507
199209040505         5.32562
199209040510         5.32506
199209040515         5.32541
199209040520         5.32517
199209040525         5.32523
199209040530         5.32538
199209040535         5.32518
199209040540         5.32532
199209040545         5.32517
199209040550         5.32551
199209040555         5.32517
199209040600         5.32523
199209040605         5.32527
199209040610         5.32524
199209040615         5.32531
199209040620          5.3252
199209040625         5.32539
199209040630         5.32508
199209040635         5.32545
199209040640         5.32512
199209040645         5.32529
199209040650         5.32532
199209040655         5.32518
199209040700         5.32536
199209040705         5.32517
199209040710         5.32524
199209040715         5.32534
199209040720         5.32532
199209040725         5.32522
199209040730          5.3253
199209040735         5.32555
199209040740         5.32509
199209040745         5.32543
199209040750         5.32517
199209040755         5.32532
199209040800         5.32524
199209040805         5.32524
199209040810         5.32544
199209040815         5.32524
199209040820         5.32526
199209040825          5.3252
199209040830          5.3253
199209040835          5.3252
199209040840         5.32533
199209040845         5.32513
199209040850         5.32542
199209040855         5.32514
199209040900         5.32535
199209040905         5.32512
199209040910         5.32534
199209040915         5.32529
199209040920         5.32518
199209040925         5.32541
199209040930         5.32529
199209040935         5.32532
199209040940         5.32524
199209040945         5.32536
199209040950         5.32538
199209040955         5.32512
199209041000         5.32553
199209041005         5.32509
199209041010         5.32537
199209041015         5.32548
199209041020         5.32533
199209041025          5.3253
199209041030         5.32524
199209041035          5.3253
199209041040         5.32528
199209041045         5.32527
199209041050         5.32518
199209041055          5.3253
199209041100         5.32519
199209041105         5.32529
199209041110          5.3251
199209041115         5.32551
199209041120         5.32526
199209041125         5.32519
199209041130         5.32544
199209041135         5.32539
199209041140         5.32532
199209041145         5.32522
199209041150         5.32529
199209041155         5.32525
199209041200         5.32528
199209041205         5.32521
199209041210         5.32528
199209041215         5.32516
199209041220         5.32528
199209041225         5.32527
199209041230         5.32547
199209041235         5.32514
199209041240         5.32535
199209041245         5.32521
199209041250         5.32525
199209041255         5.32529
199209041300         5.32515
199209041305         5.32534
199209041310         5.32513
199209041315         5.32536
199209041320         5.32516
199209041325          5.3253
199209041330         5.32522
199209041335         5.32518
199209041340         5.32531
199209041345         5.32524
199209041350         5.32513
199209041355         5.32543
199209041400         5.32507
199209041405         5.32553
199209041410         5.32523
199209041415         5.32533
199209041420         5.32522
199209041425         5.32528
199209041430         5.32519
199209041435         5.32528
199209041440         5.32523
199209041445         5.32525
199209041450         5.32526
199209041455         5.32526
199209041500         5.32523
199209041505         5.32528
199209041510         5.32525
199209041515         5.32529
199209041520         5.32519
199209041525         5.32527
199209041530         5.32525
199209041535         5.32517
199209041540         5.32534
199209041545         5.32514
199209041550         5.32529
199209041555         5.32519
199209041600         5.32524
199209041605         5.32526
199209041610         5.32516
199209041615         5.32532
199209041620         5.32516
199209041625         5.32525
199209041630         5.32516
199209041635         5.32537
199209041640         5.32521
199209041645         5.32547
199209041650          5.3252
199209041655         5.32532
199209041700         5.32528
199209041705         5.32527
199209041710         5.32529
199209041715         5.32517
199209041720         5.32534
199209041725          5.3252
199209041730         5.32517
199209041735         5.32534
199209041740         5.32515
199209041745         5.32527
199209041750         5.32521
199209041755         5.32519
199209041800         5.32533
199209041805         5.32517
199209041810         5.32531
199209041815          5.3252
199209041820          5.3252
199209041825         5.32528
199209041830         5.32516
199209041835         5.32533
199209041840         5.32511
199209041845         5.32536
199209041850         5.32513
199209041855          5.3253
199209041900          5.3252
199209041905          5.3253
199209041910         5.32511
199209041915         5.32563
199209041920         5.32508
199209041925         5.32536
199209041930         5.32512
199209041935         5.32545
199209041940         5.32528
199209041945         5.32524
199209041950         5.32519
199209041955         5.32537
199209042000         5.32526
199209042005         5.32523
199209042010         5.32524
199209042015         5.32527
199209042020         5.32534
199209042025         5.32541
199209042030         5.32519
199209042035         5.32546
199209042040          5.3251
199209042045         5.32539
199209042050         5.32524
199209042055         5.32534
199209042100         5.32511
199209042105         5.32542
199209042110         5.32514
199209042115         5.32531
199209042120         5.32524
199209042125          5.3252
199209042130         5.32526
199209042135         5.32522
199209042140         5.32521
199209042145         5.32532
199209042150         5.32518
199209042155         5.32522
199209042200         5.32529
199209042205         5.32512
199209042210         5.32536
199209042215         5.32509
199209042220         5.32539
199209042225         5.32519
199209042230         5.32525
199209042235         5.32527
199209042240         5.32526
199209042245         5.32519
199209042250          5.3253
199209042255         5.32518
199209042300         5.32523
199209042305         5.32529
199209042310         5.32524
199209042315         5.32518
199209042320         5.32531
199209042325         5.32519
199209042330         5.32532
199209042335         5.32514
199209042340         5.32533
199209042345         5.32506
199209042350         5.32551
199209042355         5.32515
199209050000         5.32532
199209050005         5.32516
199209050010         5.32559
199209050015         5.32502
199209050020         5.32556
199209050025         5.32509
199209050030         5.32532
199209050035          5.3253
199209050040         5.32521
199209050045         5.32543
199209050050         5.32514
199209050055         5.32535
199209050100         5.32515
199209050105         5.32525
199209050110         5.32539
199209050115         5.32537
199209050120         5.32527
199209050125         5.32524
199209050130         5.32544
199209050135         5.32503
199209050140         5.32574
199209050145         5.32516
199209050150         5.32528
199209050155          5.3253
199209050200         5.32521
199209050205         5.32528
199209050210         5.32527
199209050215         5.32514
199209050220          5.3254
199209050225         5.32506
199209050230          5.3255
199209050235         5.32511
199209050240         5.32524
199209050245         5.32542
199209050250         5.32534
199209050255         5.32529
199209050300         5.32522
199209050305         5.32528
199209050310         5.32533
199209050315         5.32543
199209050320          5.3253
199209050325         5.32533
199209050330          5.3252
199209050335         5.32535
199209050340         5.32518
199209050345         5.32568
199209050350         5.32516
199209050355         5.32531
199209050400         5.32529
199209050405         5.32524
199209050410         5.32531
199209050415         5.32514
199209050420         5.32548
199209050425         5.32511
199209050430         5.32536
199209050435         5.32534
199209050440         5.32521
199209050445         5.32546
199209050450         5.32518
199209050455         5.32539
199209050500         5.32526
199209050505         5.32523
199209050510         5.32524
199209050515         5.32533
199209050520         5.32506
199209050525         5.32559
199209050530         5.32523
199209050535         5.32537
199209050540         5.32512
199209050545         5.32544
199209050550         5.32519
199209050555         5.32527
199209050600         5.32525
199209050605         5.32527
199209050610         5.32531
199209050615         5.32524
199209050620         5.32521
199209050625         5.32538
199209050630          5.3251
199209050635         5.32539
199209050640         5.32515
199209050645         5.32529
199209050650         5.32524
199209050655         5.32529
199209050700         5.32519
199209050705         5.32529
199209050710         5.32517
199209050715         5.32531
199209050720          5.3252
199209050725         5.32532
199209050730         5.32517
199209050735         5.32525
199209050740         5.32528
199209050745         5.32523
199209050750         5.32515
199209050755         5.32541
199209050800         5.32508
199209050805         5.32563
199209050810         5.32508
199209050815         5.32535
199209050820         5.32526
199209050825         5.32537
199209050830         5.32527
199209050835         5.32519
199209050840         5.32533
199209050845         5.32511
199209050850         5.32551
199209050855         5.32506
199209050900         5.32546
199209050905         5.32529
199209050910         5.32526
199209050915         5.32522
199209050920         5.32526
199209050925          5.3253
199209050930         5.32538
199209050935          5.3252
199209050940         5.32522
199209050945         5.32529
199209050950         5.32521
199209050955         5.32522
199209051000         5.32529
199209051005         5.32519
199209051010         5.32545
199209051015         5.32519
199209051020         5.32553
199209051025         5.32513
199209051030         5.32537
199209051035         5.32519
199209051040          5.3253
199209051045         5.32543
199209051050         5.32509
199209051055          5.3254
199209051100          5.3252
199209051105         5.32531
199209051110         5.32515
199209051115         5.32532
199209051120         5.32519
199209051125         5.32524
199209051130         5.32529
199209051135         5.32509
199209051140         5.32549
199209051145         5.32509
199209051150          5.3255
199209051155         5.32525
199209051200         5.32526
199209051205         5.32537
199209051210         5.32518
199209051215         5.32538
199209051220          5.3252
199209051225         5.32532
199209051230         5.32526
199209051235         5.32514
199209051240         5.32544
199209051245         5.32512
199209051250         5.32532
199209051255         5.32538
199209051300         5.32515
199209051305         5.32545
199209051310         5.32521
199209051315         5.32532
199209051320         5.32523
199209051325         5.32531
199209051330         5.32515
199209051335         5.32539
199209051340         5.32511
199209051345          5.3254
199209051350         5.32504
199209051355          5.3255
199209051400         5.32515
199209051405         5.32535
199209051410         5.32515
199209051415         5.32543
199209051420         5.32512
199209051425         5.32537
199209051430         5.32511
199209051435         5.32537
199209051440         5.32514
199209051445         5.32533
199209051450         5.32515
199209051455         5.32544
199209051500         5.32511
199209051505         5.32533
199209051510         5.32516
199209051515         5.32532
199209051520         5.32515
199209051525         5.32532
199209051530         5.32508
199209051535         5.32554
199209051540         5.32515
199209051545         5.32532
199209051550         5.32523
199209051555          5.3252
199209051600         5.32528
199209051605         5.32519
199209051610         5.32529
199209051615         5.32514
199209051620         5.32532
199209051625         5.32515
199209051630         5.32537
199209051635         5.32506
199209051640         5.32551
199209051645         5.32519
199209051650         5.32516
199209051655         5.32542
199209051700         5.32514
199209051705         5.32537
199209051710         5.32521
199209051715         5.32522
199209051720         5.32536
199209051725         5.32536
199209051730         5.32512
199209051735         5.32541
199209051740         5.32513
199209051745         5.32544
199209051750         5.32518
199209051755         5.32523
199209051800         5.32538
199209051805         5.32527
199209051810         5.32523
199209051815         5.32537
199209051820          5.3253
199209051825         5.32534
199209051830         5.32527
199209051835         5.32517
199209051840         5.32546
199209051845         5.32511
199209051850         5.32538
199209051855         5.32516
199209051900         5.32526
199209051905         5.32539
199209051910         5.32513
199209051915         5.32545
199209051920         5.32523
199209051925         5.32521
199209051930         5.32539
199209051935         5.32516
199209051940         5.32535
199209051945         5.32517
199209051950         5.32522
199209051955         5.32538
199209052000         5.32534
199209052005         5.32531
199209052010         5.32522
199209052015         5.32529
199209052020         5.32527
199209052025          5.3252
199209052030          5.3253
199209052035         5.32516
199209052040         5.32533
199209052045         5.32513
199209052050         5.32549
199209052055          5.3251
199209052100          5.3253
199209052105          5.3252
199209052110         5.32528
199209052115         5.32516
199209052120         5.32545
199209052125         5.32529
199209052130         5.32514
199209052135         5.32548
199209052140         5.32543
199209052145         5.32515
199209052150         5.32543
199209052155         5.32522
199209052200         5.32518
199209052205         5.32545
199209052210         5.32529
199209052215         5.32524
199209052220         5.32522
199209052225          5.3253
199209052230         5.32516
199209052235         5.32537
199209052240         5.32523
199209052245         5.32525
199209052250         5.32524
199209052255         5.32534
199209052300         5.32523
199209052305          5.3252
199209052310         5.32532
199209052315         5.32514
199209052320         5.32532
199209052325         5.32523
199209052330         5.32518
199209052335         5.32535
199209052340          5.3252
199209052345         5.32543
199209052350         5.32506
199209052355         5.32565
199209060000         5.32501
199209060005         5.32556
199209060010         5.32507
199209060015         5.32551
199209060020         5.32521
199209060025         5.32531
199209060030         5.32524
199209060035         5.32531
199209060040         5.32522
199209060045         5.32529
199209060050          5.3253
199209060055         5.32511
199209060100         5.32561
199209060105         5.32517
199209060110         5.32536
199209060115         5.32523
199209060120         5.32542
199209060125         5.32517
199209060130         5.32527
199209060135         5.32516
199209060140          5.3255
199209060145         5.32532
199209060150         5.32521
199209060155          5.3254
199209060200         5.32521
199209060205         5.32537
199209060210         5.32521
199209060215         5.32524
199209060220         5.32538
199209060225         5.32521
199209060230         5.32523
199209060235         5.32523
199209060240         5.32535
199209060245         5.32553
199209060250         5.32517
199209060255         5.32527
199209060300         5.32523
199209060305         5.32536
199209060310         5.32527
199209060315         5.32525
199209060320         5.32534
199209060325         5.32515
199209060330         5.32533
199209060335         5.32556
199209060340         5.32536
199209060345         5.32539
199209060350         5.32526
199209060355         5.32522
199209060400         5.32543
199209060405         5.32504
199209060410         5.32575
199209060415         5.32528
199209060420         5.32537
199209060425          5.3252
199209060430         5.32549
199209060435         5.32512
199209060440         5.32535
199209060445         5.32531
199209060450         5.32532
199209060455         5.32512
199209060500         5.32543
199209060505         5.32514
199209060510         5.32532
199209060515         5.32517
199209060520          5.3253
199209060525         5.32516
199209060530         5.32538
199209060535         5.32526
199209060540         5.32526
199209060545         5.32521
199209060550         5.32528
199209060555         5.32529
199209060600         5.32509
199209060605         5.32553
199209060610         5.32526
199209060615         5.32528
199209060620         5.32517
199209060625         5.32536
199209060630         5.32519
199209060635         5.32548
199209060640         5.32519
199209060645          5.3254
199209060650         5.32534
199209060655         5.32545
199209060700         5.32511
199209060705          5.3256
199209060710         5.32502
199209060715         5.32575
199209060720         5.32505
199209060725         5.32549
199209060730          5.3253
199209060735          5.3253
199209060740         5.32534
199209060745         5.32527
199209060750         5.32526
199209060755         5.32526
199209060800         5.32529
199209060805         5.32527
199209060810         5.32518
199209060815         5.32533
199209060820         5.32516
199209060825         5.32533
199209060830         5.32515
199209060835         5.32537
199209060840          5.3251
199209060845          5.3254
199209060850         5.32515
199209060855         5.32533
199209060900         5.32516
199209060905         5.32551
199209060910         5.32511
199209060915         5.32525
199209060920         5.32542
199209060925         5.32538
199209060930         5.32535
199209060935         5.32518
199209060940         5.32539
199209060945         5.32527
199209060950         5.32529
199209060955         5.32522
199209061000         5.32526
199209061005         5.32533
199209061010         5.32538
199209061015         5.32555
199209061020         5.32506
199209061025         5.32558
199209061030         5.32515
199209061035         5.32543
199209061040         5.32534
199209061045         5.32537
199209061050          5.3252
199209061055         5.32534
199209061100         5.32517
199209061105         5.32534
199209061110         5.32516
199209061115         5.32529
199209061120         5.32527
199209061125         5.32515
199209061130         5.32545
199209061135         5.32506
199209061140         5.32558
199209061145          5.3251
199209061150         5.32529
199209061155         5.32527
199209061200         5.32522
199209061205         5.32532
199209061210         5.32524
199209061215         5.32529
199209061220         5.32527
199209061225         5.32532
199209061230         5.32538
199209061235         5.32526
199209061240         5.32526
199209061245         5.32536
199209061250         5.32519
199209061255         5.32531
199209061300         5.32519
199209061305         5.32533
199209061310         5.32515
199209061315         5.32533
199209061320         5.32515
199209061325         5.32528
199209061330         5.32528
199209061335         5.32514
199209061340         5.32553
199209061345         5.32512
199209061350         5.32527
199209061355         5.32533
199209061400          5.3251
199209061405         5.32557
199209061410         5.32517
199209061415         5.32524
199209061420         5.32534
199209061425         5.32507
199209061430         5.32562
199209061435         5.32522
199209061440         5.32528
199209061445         5.32535
199209061450         5.32514
199209061455          5.3255
199209061500         5.32532
199209061505         5.32534
199209061510         5.32526
199209061515         5.32546
199209061520         5.32539
199209061525         5.32525
199209061530          5.3253
199209061535         5.32532
199209061540         5.32518
199209061545         5.32533
199209061550         5.32519
199209061555         5.32525
199209061600         5.32528
199209061605         5.32515
199209061610         5.32534
199209061615         5.32533
199209061620         5.32504
199209061625          5.3257
199209061630         5.32526
199209061635         5.32529
199209061640         5.32519
199209061645         5.32541
199209061650         5.32539
199209061655         5.32509
199209061700         5.32567
199209061705         5.32511
199209061710         5.32544
199209061715         5.32542
199209061720          5.3252
199209061725         5.32537
199209061730         5.32525
199209061735         5.32527
199209061740         5.32538
199209061745         5.32524
199209061750         5.32529
199209061755         5.32546
199209061800         5.32528
199209061805         5.32518
199209061810         5.32549
199209061815         5.32514
199209061820         5.32541
199209061825         5.32543
199209061830         5.32523
199209061835          5.3253
199209061840         5.32527
199209061845         5.32529
199209061850          5.3252
199209061855         5.32539
199209061900          5.3252
199209061905         5.32522
199209061910         5.32539
199209061915          5.3253
199209061920          5.3252
199209061925         5.32546
199209061930         5.32513
199209061935         5.32539
199209061940         5.32512
199209061945         5.32544
199209061950         5.32511
199209061955         5.32541
199209062000         5.32513
199209062005         5.32534
199209062010         5.32523
199209062015         5.32526
199209062020         5.32519
199209062025          5.3253
199209062030         5.32526
199209062035         5.32514
199209062040         5.32538
199209062045         5.32519
199209062050         5.32538
199209062055         5.32516
199209062100         5.32535
199209062105         5.32521
199209062110         5.32514
199209062115         5.32563
199209062120         5.32527
199209062125         5.32527
199209062130         5.32522
199209062135         5.32533
199209062140         5.32516
199209062145         5.32544
199209062150         5.32503
199209062155         5.32555
199209062200         5.32525
199209062205         5.32525
199209062210         5.32534
199209062215         5.32524
199209062220          5.3252
199209062225         5.32531
199209062230          5.3252
199209062235         5.32525
199209062240         5.32521
199209062245         5.32524
199209062250         5.32517
199209062255          5.3253
199209062300         5.32516
199209062305         5.32536
199209062310         5.32515
199209062315         5.32531
199209062320         5.32526
199209062325         5.32511
199209062330         5.32557
199209062335         5.32501
199209062340         5.32557
199209062345         5.32508
199209062350         5.32543
199209062355         5.32532
199209070000         5.32536
199209070005         5.32522
199209070010         5.32534
199209070015         5.32523
199209070020         5.32524
199209070025         5.32534
199209070030          5.3252
199209070035         5.32527
199209070040         5.32527
199209070045         5.32513
199209070050         5.32542
199209070055         5.32503
199209070100         5.32566
199209070105         5.32496
199209070110         5.32557
199209070115         5.32512
199209070120         5.32536
199209070125          5.3252
199209070130         5.32537
199209070135         5.32519
199209070140         5.32552
199209070145          5.3251
199209070150         5.32545
199209070155         5.32518
199209070200         5.32528
199209070205         5.32523
199209070210          5.3253
199209070215         5.32514
199209070220         5.32538
199209070225         5.32508
199209070230         5.32551
199209070235         5.32518
199209070240         5.32529
199209070245         5.32517
199209070250          5.3253
199209070255         5.32532
199209070300         5.32544
199209070305         5.32534
199209070310         5.32521
199209070315         5.32525
199209070320         5.32548
199209070325         5.32542
199209070330         5.32517
199209070335         5.32537
199209070340         5.32522
199209070345         5.32531
199209070350         5.32525
199209070355          5.3255
199209070400         5.32526
199209070405         5.32527
199209070410         5.32524
199209070415         5.32533
199209070420         5.32528
199209070425         5.32516
199209070430         5.32547
199209070435         5.32504
199209070440         5.32555
199209070445         5.32512
199209070450         5.32546
199209070455         5.32547
199209070500         5.32525
199209070505         5.32529
199209070510         5.32526
199209070515         5.32525
199209070520         5.32533
199209070525         5.32521
199209070530          5.3252
199209070535         5.32533
199209070540         5.32523
199209070545         5.32528
199209070550         5.32544
199209070555         5.32554
199209070600         5.32511
199209070605          5.3255
199209070610         5.32507
199209070615         5.32558
199209070620          5.3251
199209070625         5.32535
199209070630         5.32536
199209070635          5.3253
199209070640         5.32536
199209070645         5.32521
199209070650         5.32534
199209070655         5.32527
199209070700         5.32518
199209070705         5.32537
199209070710         5.32522
199209070715          5.3253
199209070720         5.32524
199209070725         5.32526
199209070730         5.32527
199209070735         5.32531
199209070740         5.32521
199209070745         5.32533
199209070750         5.32519
199209070755         5.32542
199209070800         5.32518
199209070805         5.32545
199209070810         5.32524
199209070815         5.32527
199209070820         5.32529
199209070825         5.32526
199209070830          5.3252
199209070835         5.32545
199209070840          5.3253
199209070845         5.32527
199209070850         5.32539
199209070855         5.32515
199209070900         5.32533
199209070905         5.32524
199209070910         5.32525
199209070915         5.32523
199209070920         5.32519
199209070925          5.3253
199209070930         5.32532
199209070935         5.32515
199209070940         5.32531
199209070945         5.32516
199209070950         5.32533
199209070955         5.32513
199209071000         5.32555
199209071005         5.32505
199209071010         5.32544
199209071015         5.32532
199209071020         5.32538
199209071025         5.32514
199209071030          5.3255
199209071035          5.3253
199209071040         5.32525
199209071045         5.32541
199209071050         5.32539
199209071055         5.32538
199209071100         5.32514
199209071105         5.32543
199209071110         5.32515
199209071115         5.32535
199209071120         5.32515
199209071125         5.32528
199209071130         5.32534
199209071135         5.32514
199209071140         5.32553
199209071145         5.32515
199209071150         5.32532
199209071155          5.3252
199209071200         5.32532
199209071205         5.32515
199209071210         5.32533
199209071215         5.32517
199209071220         5.32527
199209071225          5.3252
199209071230         5.32527
199209071235          5.3252
199209071240         5.32532
199209071245         5.32543
199209071250         5.32533
199209071255         5.32533
199209071300         5.32517
199209071305         5.32538
199209071310         5.32522
199209071315         5.32526
199209071320         5.32535
199209071325         5.32519
199209071330          5.3253
199209071335         5.32526
199209071340          5.3252
199209071345         5.32533
199209071350         5.32516
199209071355          5.3253
199209071400         5.32523
199209071405         5.32518
199209071410         5.32529
199209071415          5.3252
199209071420          5.3253
199209071425         5.32521
199209071430         5.32527
199209071435         5.32524
199209071440         5.32529
199209071445         5.32517
199209071450         5.32528
199209071455         5.32529
199209071500         5.32509
199209071505         5.32548
199209071510         5.32523
199209071515         5.32523
199209071520         5.32524
199209071525         5.32524
199209071530         5.32523
199209071535         5.32525
199209071540         5.32514
199209071545         5.32543
199209071550          5.3252
199209071555         5.32526
199209071600         5.32542
199209071605         5.32514
199209071610         5.32544
199209071615         5.32515
199209071620         5.32538
199209071625         5.32518
199209071630         5.32526
199209071635         5.32536
199209071640         5.32513
199209071645         5.32544
199209071650         5.32512
199209071655         5.32535
199209071700         5.32523
199209071705          5.3252
199209071710          5.3255
199209071715         5.32522
199209071720         5.32529
199209071725         5.32531
199209071730         5.32523
199209071735         5.32527
199209071740         5.32521
199209071745         5.32526
199209071750         5.32522
199209071755         5.32542
199209071800         5.32505
199209071805         5.32546
199209071810         5.32512
199209071815         5.32534
199209071820         5.32515
199209071825         5.32532
199209071830         5.32515
199209071835         5.32544
199209071840          5.3254
199209071845         5.32522
199209071850         5.32521
199209071855          5.3253
199209071900         5.32528
199209071905         5.32519
199209071910         5.32535
199209071915         5.32518
199209071920         5.32532
199209071925         5.32515
199209071930         5.32531
199209071935          5.3252
199209071940         5.32524
199209071945          5.3253
199209071950         5.32511
199209071955         5.32543
199209072000         5.32501
199209072005         5.32565
199209072010         5.32499
199209072015         5.32556
199209072020         5.32529
199209072025          5.3253
199209072030         5.32523
199209072035          5.3253
199209072040         5.32518
199209072045         5.32533
199209072050         5.32518
199209072055         5.32528
199209072100          5.3253
199209072105         5.32537
199209072110         5.32513
199209072115         5.32541
199209072120         5.32525
199209072125         5.32535
199209072130         5.32512
199209072135         5.32556
199209072140         5.32516
199209072145         5.32533
199209072150         5.32523
199209072155         5.32526
199209072200         5.32529
199209072205         5.32523
199209072210         5.32521
199209072215         5.32531
199209072220         5.32513
199209072225          5.3257
199209072230         5.32503
199209072235         5.32538
199209072240         5.32524
199209072245          5.3252
199209072250         5.32549
199209072255          5.3252
199209072300         5.32526
199209072305          5.3252
199209072310          5.3253
199209072315         5.32528
199209072320         5.32538
199209072325         5.32544
199209072330         5.32518
199209072335         5.32546
199209072340         5.32537
199209072345         5.32518
199209072350         5.32546
199209072355         5.32506
199209080000         5.32572
199209080005         5.32514
199209080010         5.32539
199209080015          5.3253
199209080020         5.32524
199209080025         5.32528
199209080030         5.32537
199209080035         5.32515
199209080040         5.32537
199209080045         5.32516
199209080050          5.3253
199209080055         5.32525
199209080100          5.3252
199209080105         5.32526
199209080110         5.32524
199209080115         5.32519
199209080120          5.3253
199209080125         5.32512
199209080130         5.32543
199209080135         5.32537
199209080140         5.32517
199209080145         5.32532
199209080150         5.32523
199209080155         5.32537
199209080200         5.32547
199209080205         5.32532
199209080210         5.32519
199209080215         5.32547
199209080220          5.3253
199209080225         5.32527
199209080230         5.32526
199209080235         5.32527
199209080240         5.32525
199209080245         5.32528
199209080250         5.32523
199209080255         5.32526
199209080300         5.32523
199209080305         5.32526
199209080310         5.32525
199209080315         5.32546
199209080320         5.32513
199209080325         5.32545
199209080330         5.32516
199209080335         5.32535
199209080340         5.32522
199209080345         5.32529
199209080350         5.32546
199209080355         5.32526
199209080400         5.32525
199209080405         5.32531
199209080410         5.32529
199209080415         5.32544
199209080420         5.32544
199209080425         5.32509
199209080430         5.32552
199209080435         5.32527
199209080440         5.32533
199209080445         5.32537
199209080450         5.32541
199209080455         5.32522
199209080500         5.32531
199209080505         5.32525
199209080510         5.32532
199209080515         5.32545
199209080520         5.32546
199209080525         5.32516
199209080530         5.32542
199209080535         5.32533
199209080540         5.32523
199209080545         5.32529
199209080550         5.32522
199209080555         5.32527
199209080600         5.32526
199209080605         5.32522
199209080610         5.32526
199209080615         5.32517
199209080620          5.3254
199209080625         5.32532
199209080630          5.3252
199209080635         5.32527
199209080640         5.32536
199209080645         5.32517
199209080650         5.32531
199209080655         5.32521
199209080700         5.32529
199209080705         5.32516
199209080710         5.32534
199209080715         5.32521
199209080720         5.32525
199209080725         5.32528
199209080730         5.32536
199209080735         5.32521
199209080740         5.32522
199209080745         5.32531
199209080750         5.32517
199209080755         5.32554
199209080800         5.32514
199209080805         5.32524
199209080810         5.32532
199209080815         5.32529
199209080820         5.32527
199209080825         5.32525
199209080830         5.32517
199209080835         5.32539
199209080840         5.32516
199209080845         5.32544
199209080850         5.32511
199209080855          5.3254
199209080900         5.32514
199209080905         5.32526
199209080910         5.32529
199209080915         5.32531
199209080920         5.32523
199209080925         5.32519
199209080930         5.32531
199209080935         5.32518
199209080940         5.32536
199209080945         5.32535
199209080950         5.32517
199209080955         5.32525
199209081000         5.32528
199209081005         5.32514
199209081010         5.32544
199209081015         5.32533
199209081020         5.32521
199209081025         5.32523
199209081030         5.32554
199209081035          5.3252
199209081040         5.32539
199209081045         5.32521
199209081050         5.32535
199209081055         5.32519
199209081100          5.3253
199209081105         5.32514
199209081110         5.32534
199209081115         5.32518
199209081120         5.32522
199209081125         5.32526
199209081130         5.32532
199209081135         5.32543
199209081140         5.32519
199209081145         5.32533
199209081150         5.32521
199209081155         5.32531
199209081200          5.3253
199209081205         5.32523
199209081210         5.32518
199209081215         5.32531
199209081220         5.32522
199209081225         5.32523
199209081230         5.32526
199209081235         5.32519
199209081240         5.32556
199209081245          5.3252
199209081250         5.32525
199209081255          5.3253
199209081300         5.32516
199209081305         5.32544
199209081310         5.32532
199209081315         5.32536
199209081320         5.32522
199209081325         5.32529
199209081330         5.32521
199209081335          5.3253
199209081340         5.32522
199209081345         5.32525
199209081350         5.32519
199209081355         5.32536
199209081400         5.32542
199209081405         5.32527
199209081410         5.32539
199209081415         5.32515
199209081420         5.32544
199209081425         5.32518
199209081430         5.32536
199209081435         5.32514
199209081440         5.32538
199209081445         5.32531
199209081450         5.32517
199209081455         5.32536
199209081500         5.32517
199209081505         5.32534
199209081510         5.32516
199209081515         5.32542
199209081520         5.32519
199209081525         5.32523
199209081530         5.32529
199209081535         5.32517
199209081540         5.32539
199209081545         5.32536
199209081550          5.3253
199209081555         5.32537
199209081600         5.32516
199209081605          5.3256
199209081610         5.32511
199209081615         5.32532
199209081620         5.32534
199209081625          5.3252
199209081630         5.32531
199209081635         5.32523
199209081640         5.32529
199209081645         5.32511
199209081650         5.32546
199209081655         5.32511
199209081700         5.32543
199209081705         5.32532
199209081710         5.32537
199209081715         5.32514
199209081720         5.32548
199209081725         5.32516
199209081730         5.32534
199209081735          5.3251
199209081740         5.32554
199209081745         5.32539
199209081750         5.32519
199209081755          5.3253
199209081800         5.32538
199209081805         5.32518
199209081810         5.32539
199209081815         5.32507
199209081820         5.32561
199209081825         5.32508
199209081830         5.32542
199209081835         5.32506
199209081840         5.32554
199209081845         5.32512
199209081850         5.32527
199209081855         5.32533
199209081900         5.32534
199209081905          5.3252
199209081910          5.3253
199209081915         5.32519
199209081920          5.3253
199209081925         5.32518
199209081930         5.32528
199209081935         5.32522
199209081940         5.32531
199209081945         5.32521
199209081950         5.32538
199209081955         5.32518
199209082000         5.32521
199209082005         5.32534
199209082010         5.32523
199209082015         5.32521
199209082020         5.32524
199209082025         5.32519
199209082030         5.32532
199209082035         5.32519
199209082040          5.3254
199209082045         5.32546
199209082050         5.32518
199209082055         5.32538
199209082100         5.32515
199209082105         5.32539
199209082110         5.32518
199209082115         5.32529
199209082120         5.32519
199209082125         5.32532
199209082130          5.3251
199209082135         5.32541
199209082140         5.32522
199209082145          5.3252
199209082150         5.32531
199209082155         5.32511
199209082200         5.32546
199209082205         5.32513
199209082210         5.32533
199209082215         5.32519
199209082220         5.32528
199209082225         5.32516
199209082230         5.32529
199209082235         5.32522
199209082240         5.32542
199209082245         5.32514
199209082250         5.32527
199209082255          5.3253
199209082300         5.32513
199209082305         5.32541
199209082310         5.32505
199209082315         5.32554
199209082320         5.32529
199209082325         5.32517
199209082330         5.32541
199209082335         5.32523
199209082340         5.32534
199209082345         5.32525
199209082350         5.32516
199209082355         5.32539
199209090000         5.32507
199209090005         5.32553
199209090010         5.32527
199209090015          5.3252
199209090020          5.3253
199209090025         5.32522
199209090030         5.32528
199209090035         5.32523
199209090040         5.32542
199209090045         5.32506
199209090050         5.32547
199209090055         5.32509
199209090100         5.32543
199209090105         5.32534
199209090110          5.3252
199209090115         5.32526
199209090120         5.32525
199209090125         5.32522
199209090130         5.32529
199209090135         5.32522
199209090140         5.32518
199209090145         5.32531
199209090150         5.32521
199209090155          5.3252
199209090200         5.32535
199209090205         5.32506
199209090210         5.32561
199209090215         5.32508
199209090220         5.32537
199209090225         5.32521
199209090230         5.32535
199209090235         5.32526
199209090240         5.32517
199209090245          5.3255
199209090250         5.32509
199209090255         5.32536
199209090300         5.32519
199209090305         5.32526
199209090310         5.32536
199209090315         5.32522
199209090320         5.32532
199209090325         5.32525
199209090330          5.3252
199209090335         5.32548
199209090340         5.32507
199209090345          5.3254
199209090350         5.32518
199209090355         5.32526
199209090400         5.32527
199209090405         5.32523
199209090410         5.32523
199209090415         5.32533
199209090420         5.32524
199209090425         5.32549
199209090430         5.32534
199209090435         5.32525
199209090440         5.32522
199209090445         5.32546
199209090450         5.32513
199209090455         5.32536
199209090500         5.32518
199209090505         5.32535
199209090510          5.3251
199209090515         5.32541
199209090520         5.32516
199209090525         5.32524
199209090530         5.32523
199209090535         5.32519
199209090540         5.32529
199209090545         5.32515
199209090550         5.32537
199209090555         5.32521
199209090600         5.32528
199209090605         5.32524
199209090610         5.32533
199209090615         5.32513
199209090620         5.32538
199209090625         5.32524
199209090630         5.32516
199209090635         5.32532
199209090640         5.32521
199209090645         5.32538
199209090650         5.32519
199209090655         5.32513
199209090700         5.32566
199209090705         5.32529
199209090710          5.3253
199209090715         5.32537
199209090720         5.32543
199209090725         5.32518
199209090730         5.32541
199209090735          5.3252
199209090740         5.32531
199209090745         5.32524
199209090750         5.32524
199209090755         5.32525
199209090800         5.32523
199209090805         5.32525
199209090810         5.32523
199209090815          5.3254
199209090820         5.32522
199209090825         5.32513
199209090830          5.3255
199209090835         5.32517
199209090840         5.32523
199209090845          5.3254
199209090850          5.3253
199209090855         5.32522
199209090900         5.32537
199209090905         5.32517
199209090910         5.32531
199209090915         5.32517
199209090920         5.32536
199209090925         5.32525
199209090930         5.32524
199209090935         5.32528
199209090940         5.32518
199209090945         5.32528
199209090950         5.32519
199209090955         5.32526
199209091000         5.32515
199209091005         5.32532
199209091010         5.32514
199209091015         5.32546
199209091020         5.32519
199209091025         5.32521
199209091030          5.3253
199209091035         5.32517
199209091040          5.3253
199209091045         5.32522
199209091050         5.32528
199209091055         5.32518
199209091100         5.32533
199209091105         5.32515
199209091110         5.32529
199209091115         5.32525
199209091120         5.32518
199209091125         5.32528
199209091130         5.32517
199209091135         5.32528
199209091140          5.3252
199209091145         5.32528
199209091150         5.32514
199209091155         5.32534
199209091200         5.32524
199209091205         5.32512
199209091210         5.32547
199209091215         5.32513
199209091220         5.32532
199209091225         5.32522
199209091230         5.32542
199209091235         5.32515
199209091240          5.3255
199209091245         5.32511
199209091250         5.32542
199209091255         5.32515
199209091300         5.32531
199209091305         5.32519
199209091310         5.32526
199209091315         5.32518
199209091320         5.32524
199209091325         5.32523
199209091330          5.3252
199209091335         5.32542
199209091340         5.32518
199209091345         5.32533
199209091350         5.32503
199209091355         5.32575
199209091400         5.32513
199209091405          5.3254
199209091410         5.32522
199209091415         5.32526
199209091420         5.32525
199209091425         5.32535
199209091430         5.32538
199209091435         5.32528
199209091440         5.32521
199209091445          5.3254
199209091450         5.32515
199209091455         5.32533
199209091500         5.32523
199209091505         5.32525
199209091510          5.3252
199209091515         5.32529
199209091520         5.32513
199209091525         5.32534
199209091530         5.32513
199209091535         5.32535
199209091540         5.32518
199209091545         5.32524
199209091550         5.32527
199209091555         5.32523
199209091600         5.32518
199209091605         5.32552
199209091610         5.32533
199209091615         5.32523
199209091620         5.32529
199209091625         5.32525
199209091630         5.32527
199209091635         5.32536
199209091640         5.32562
199209091645         5.32505
199209091650         5.32548
199209091655         5.32515
199209091700         5.32536
199209091705         5.32511
199209091710         5.32549
199209091715         5.32539
199209091720         5.32517
199209091725         5.32544
199209091730         5.32518
199209091735         5.32526
199209091740         5.32531
199209091745         5.32526
199209091750         5.32525
199209091755         5.32521
199209091800         5.32534
199209091805         5.32525
199209091810         5.32525
199209091815         5.32524
199209091820         5.32544
199209091825         5.32514
199209091830         5.32543
199209091835         5.32534
199209091840         5.32529
199209091845          5.3253
199209091850         5.32531
199209091855         5.32528
199209091900         5.32517
199209091905         5.32557
199209091910          5.3251
199209091915         5.32536
199209091920         5.32525
199209091925         5.32523
199209091930         5.32525
199209091935         5.32538
199209091940         5.32544
199209091945          5.3252
199209091950         5.32543
199209091955         5.32503
199209092000         5.32576
199209092005         5.32519
199209092010         5.32532
199209092015         5.32527
199209092020         5.32521
199209092025         5.32533
199209092030         5.32519
199209092035         5.32525
199209092040         5.32535
199209092045         5.32532
199209092050         5.32545
199209092055         5.32518
199209092100         5.32535
199209092105         5.32517
199209092110         5.32547
199209092115         5.32522
199209092120         5.32544
199209092125         5.32534
199209092130         5.32517
199209092135          5.3255
199209092140         5.32504
199209092145          5.3256
199209092150          5.3252
199209092155         5.32518
199209092200         5.32549
199209092205         5.32517
199209092210         5.32535
199209092215         5.32517
199209092220         5.32526
199209092225         5.32534
199209092230         5.32533
199209092235         5.32523
199209092240         5.32529
199209092245         5.32537
199209092250         5.32522
199209092255         5.32524
199209092300         5.32531
199209092305         5.32525
199209092310         5.32522
199209092315         5.32525
199209092320         5.32526
199209092325         5.32519
199209092330          5.3253
199209092335         5.32516
199209092340         5.32529
199209092345          5.3252
199209092350         5.32528
199209092355         5.32538
199209100000         5.32522
