#------------------------------------------------------
# Deltares, D-Flow FM Version 1.1.35.22725:22731M, Oct 11 2012, 12:57:19
# Created on 2012-12-06T16:27:57+0100, D-Flow FM
#------------------------------------------------------
# Location    : Obs03
# Position    : (200,2)
# Source      : model
# Unit        : waterlevel
# Analyse time: most recent
# Timezone    : GMT
#------------------------------------------------------
199208310000 0
199208310005 1.55269941213815e-18
199208310010 2.41758149225456e-14
199208310015 9.92494579144302e-12
199208310020 6.91246134720799e-10
199208310025 1.60712498143928e-08
199208310030 1.83205542846103e-07
199208310035 1.2449080619276e-06
199208310040 5.66542182156742e-06
199208310045 1.84440924765314e-05
199208310050 4.51639730664804e-05
199208310055 8.76913028849823e-05
199208310100 0.000142893331441182
199208310105 0.00020569012365433
199208310110 0.000272166673402018
199208310115 0.000340621786506221
199208310120 0.000411034245761478
199208310125 0.000484090037740067
199208310130 0.000560499870011615
199208310135 0.000640745253967563
199208310140 0.000725089377234207
199208310145 0.000813662375796074
199208310150 0.00090653903776148
199208310155 0.00100375497022824
199208310200 0.00110534307589527
199208310205 0.0012113276755358
199208310210 0.001321734170994
199208310215 0.00143659321718088
199208310220 0.00155592589512966
199208310225 0.00167976583448785
199208310230 0.00180814226482356
199208310235 0.00194108603171248
199208310240 0.00207863198058747
199208310245 0.00222081138086043
199208310250 0.00236766152296805
199208310255 0.00251921482596099
199208310300 0.00267550515923498
199208310305 0.00283657043843534
199208310310 0.00300244541332131
199208310315 0.00317316601168382
199208310320 0.00334877513110051
199208310325 0.00352930639793174
199208310330 0.00371480358456646
199208310335 0.00390530473297123
199208310340 0.00410085293928013
199208310345 0.0043014855166189
199208310350 0.00450725216116522
199208310355 0.00471818729961948
199208310400 0.00493434245059493
199208310405 0.00515575680228379
199208310410 0.00538247545373904
199208310415 0.00561454703760677
199208310420 0.00585201374366146
199208310425 0.00609492405459267
199208310430 0.00634332594765025
199208310435 0.00659726412805271
199208310440 0.00685678603234863
199208310445 0.00712194615658363
199208310450 0.00739278501978388
199208310455 0.00766935253073939
199208310500 0.00795171157855297
199208310505 0.00823989225179715
199208310510 0.00853396166202216
199208310515 0.00883396107782011
199208310520 0.00913994630515351
199208310525 0.00945196437731598
199208310530 0.00977008106839316
199208310535 0.0100943248778251
199208310540 0.0104247643008958
199208310545 0.0107614586802904
199208310550 0.011104446829199
199208310555 0.0114537757248553
199208310600 0.0118095275423333
199208310605 0.0121717352157853
199208310610 0.0125404570721674
199208310615 0.0129157265727591
199208310620 0.0132976490262794
199208310625 0.0136862429198052
199208310630 0.0140815724324128
199208310635 0.0144836986786404
199208310640 0.0148926615022053
199208310645 0.0153085112757236
199208310650 0.015731360026665
199208310655 0.0161612026854536
199208310700 0.0165981181704728
199208310705 0.017042130641109
199208310710 0.0174933462546667
199208310715 0.0179517899328591
199208310720 0.0184175362802132
199208310725 0.018890646382037
199208310730 0.0193711535199571
199208310735 0.0198591188763892
199208310740 0.0203546529327133
199208310745 0.0208577492286737
199208310750 0.0213685082302629
199208310755 0.021886948205233
199208310800 0.0224131384707595
199208310805 0.0229471715398128
199208310810 0.0234890880850089
199208310815 0.0240389133906779
199208310820 0.0245967209768099
199208310825 0.0251625879604259
199208310830 0.0257365695383182
199208310835 0.0263187124523291
199208310840 0.0269090587898352
199208310845 0.0275077214225711
199208310850 0.0281147072522174
199208310855 0.0287300772126335
199208310900 0.0293539102269568
199208310905 0.0299862701387032
199208310910 0.030627206220971
199208310915 0.0312767295168896
199208310920 0.0319349583783764
199208310925 0.0326019211281284
199208310930 0.0332776898318975
199208310935 0.0339623102505897
199208310940 0.0346558735014922
199208310945 0.0353583512148305
199208310950 0.0360698817338785
199208310955 0.0367905129804363
199208311000 0.0375202471872175
199208311005 0.038259282682903
199208311010 0.0390074955249296
199208311015 0.0397648946029476
199208311020 0.040531735262291
199208311025 0.0413079038841037
199208311030 0.0420935346551259
199208311035 0.0428886192389478
199208311040 0.0436933444718758
199208311045 0.044507737935823
199208311050 0.0453316608829873
199208311055 0.0461653942663093
199208311100 0.0470087661857591
199208311105 0.0478620242806241
199208311110 0.0487251517261492
199208311115 0.0495981852138954
199208311120 0.0504811154582068
199208311125 0.0513739946360967
199208311130 0.0522769923696476
199208311135 0.0531900892301849
199208311140 0.0541131950698094
199208311145 0.05504648525827
199208311150 0.0559899930373955
199208311155 0.056943766420996
199208311200 0.0579078067879276
199208311205 0.0588821605425234
199208311210 0.0598668852249287
199208311215 0.0608619079823611
199208311220 0.061867388152534
199208311225 0.0628833570024606
199208311230 0.0639097668790393
199208311235 0.064946668194698
199208311240 0.0659941401099508
199208311245 0.0670522151731401
199208311250 0.0681208284440907
199208311255 0.0691999578790344
199208311300 0.0702898128593236
199208311305 0.0713902808829588
199208311310 0.0725014661948146
199208311315 0.0736233588627161
199208311320 0.0747559066056022
199208311325 0.0758991562441565
199208311330 0.0770531751384375
199208311335 0.0782179855616218
199208311340 0.0793934766079101
199208311345 0.0805797169937288
199208311350 0.0817767777953998
199208311355 0.0829845412518359
199208311400 0.0842031740873612
199208311405 0.0854324111585993
199208311410 0.086672477042177
199208311415 0.0879234361961986
199208311420 0.0891849968985595
199208311425 0.090457320690526
199208311430 0.0917404462874866
199208311435 0.0930341820544395
199208311440 0.0943386249208936
199208311445 0.0956539080157166
199208311450 0.096979744974746
199208311455 0.098316218539331
199208311500 0.0996634566123753
199208311505 0.101021110108745
199208311510 0.102389475511982
199208311515 0.103768323956963
199208311520 0.105157685389779
199208311525 0.106557559132089
199208311530 0.107967908741426
199208311535 0.109388558382447
199208311540 0.110819712013675
199208311545 0.112261014504517
199208311550 0.113712680709981
199208311555 0.115174558681927
199208311600 0.116646679996
199208311605 0.11812880372664
199208311610 0.119621074323713
199208311615 0.121123513141566
199208311620 0.122635604619931
199208311625 0.12415764637979
199208311630 0.125689803707828
199208311635 0.127231512177869
199208311640 0.128782799226257
199208311645 0.130343821358879
199208311650 0.131914552210075
199208311655 0.133494503015815
199208311700 0.13508401450107
199208311705 0.1366829118816
199208311710 0.13829086635325
199208311715 0.139908130248289
199208311720 0.141534351756304
199208311725 0.143169616269575
199208311730 0.144813704052474
199208311735 0.14646655107666
199208311740 0.148128331633499
199208311745 0.149798695552611
199208311750 0.15147733442728
199208311755 0.153164544174231
199208311800 0.15486026633045
199208311805 0.156563974287352
199208311810 0.158275589240166
199208311815 0.159995427035486
199208311820 0.161723312571681
199208311825 0.163458697507591
199208311830 0.1652020240084
199208311835 0.166952706769058
199208311840 0.168710640348589
199208311845 0.170476299669266
199208311850 0.172248957161454
199208311855 0.174028767562815
199208311900 0.175815516571827
199208311905 0.177609089522428
199208311910 0.179409278554315
199208311915 0.181216291039095
199208311920 0.183029881016827
199208311925 0.184849213213641
199208311930 0.186675292530935
199208311935 0.188507248241076
199208311940 0.19034519577247
199208311945 0.19218890621503
199208311950 0.194038539157298
199208311955 0.195893486629762
199208312000 0.197753768737381
199208312005 0.199619412694889
199208312010 0.201490340701284
199208312015 0.203366168401283
199208312020 0.205246928135981
199208312025 0.207132372510445
199208312030 0.209022220344238
199208312035 0.210916971810083
199208312040 0.21281559477343
199208312045 0.214718430247615
199208312050 0.216625629795403
199208312055 0.218536567677822
199208312100 0.220451360560312
199208312105 0.22236966489394
199208312110 0.224291491069206
199208312115 0.226216554313144
199208312120 0.228144893751888
199208312125 0.23007623154417
199208312130 0.232010873586877
199208312135 0.233947821676691
199208312140 0.235887453703865
199208312145 0.237829898151378
199208312150 0.239774542153657
199208312155 0.241721356905749
199208312200 0.243670126487418
199208312205 0.245621143212713
199208312210 0.247574011197385
199208312215 0.249528214381289
199208312220 0.251484444684639
199208312225 0.253441749388263
199208312230 0.255400302657332
199208312235 0.257360293902174
199208312240 0.259321379367856
199208312245 0.26128286589956
199208312250 0.263245096742247
199208312255 0.265208465262936
199208312300 0.267172095453281
199208312305 0.269136275419079
199208312310 0.271099871536094
199208312315 0.273064843321844
199208312320 0.27502885831618
199208312325 0.276993092747601
199208312330 0.278957327414159
199208312335 0.28092123993244
199208312340 0.282883648757368
199208312345 0.284846869499708
199208312350 0.286808658569404
199208312355 0.288769329242783
199209010000 0.290729526488922
199209010005 0.29268863613749
199209010010 0.294646357001754
199209010015 0.296602905205803
199209010020 0.298557963748694
199209010025 0.300511505023114
199209010030 0.302463983895205
199209010035 0.30441379715989
199209010040 0.30636247469469
199209010045 0.308309557963644
199209010050 0.310253563296688
199209010055 0.312196594575457
199209010100 0.314148264872729
199209010105 0.316084584687871
199209010110 0.318017700016129
199209010115 0.319951425096325
199209010120 0.321881528256186
199209010125 0.323809881082358
199209010130 0.325735983929426
199209010135 0.327658776647156
199209010140 0.329578479621077
199209010145 0.331495884588116
199209010150 0.333409669818471
199209010155 0.335320499083944
199209010200 0.337227493636009
199209010205 0.339132176519631
199209010210 0.341032270183547
199209010215 0.342929758100053
199209010220 0.344824136428066
199209010225 0.346713787212202
199209010230 0.348600129089225
199209010235 0.35048295775483
199209010240 0.352361829766248
199209010245 0.354236791188148
199209010250 0.35610803314766
199209010255 0.357975082767141
199209010300 0.359838161497298
199209010305 0.361697033401202
199209010310 0.363551677032395
199209010315 0.365403053928077
199209010320 0.367249138194692
199209010325 0.369090600070869
199209010330 0.370929251196019
199209010335 0.372762551266793
199209010340 0.374591007169429
199209010345 0.376415247430546
199209010350 0.378235782090271
199209010355 0.380050817977538
199209010400 0.381861413062249
199209010405 0.383667163547965
199209010410 0.385469438348999
199209010415 0.387265532144524
199209010420 0.389057500524177
199209010425 0.390844926650546
199209010430 0.392626921758088
199209010435 0.394404307661523
199209010440 0.396176383584482
199209010445 0.397944732817716
199209010450 0.399707251100617
199209010455 0.401464873330269
199209010500 0.40321799025237
199209010505 0.40496525672253
199209010510 0.406708511305495
199209010515 0.408446081748621
199209010520 0.410178000925801
199209010525 0.41190558557235
199209010530 0.413629109405399
199209010535 0.415345630032932
199209010540 0.4170576728074
199209010545 0.418764582877242
199209010550 0.420466640512363
199209010555 0.422162546511076
199209010600 0.423853888645446
199209010605 0.425539675621825
199209010610 0.427219092505466
199209010615 0.428894580297769
199209010620 0.430564511759093
199209010625 0.432228506794951
199209010630 0.433887827808113
199209010635 0.435542040605837
199209010640 0.437189720134208
199209010645 0.438833056668672
199209010650 0.440471972506705
199209010655 0.442103753802792
199209010700 0.443731486412511
199209010705 0.445353488153951
199209010710 0.446969850434861
199209010715 0.448581894921273
199209010720 0.450187988823136
199209010725 0.451788748909023
199209010730 0.453383471447465
199209010735 0.454974768640703
199209010740 0.45656054239103
199209010745 0.45813886279243
199209010750 0.459713280218592
199209010755 0.461283689011035
199209010800 0.462846207866822
199209010805 0.464406473549124
199209010810 0.465958851874029
199209010815 0.467507287345496
199209010820 0.469050288413169
199209010825 0.470588078193705
199209010830 0.472120069629658
199209010835 0.473648160220994
199209010840 0.475169451734164
199209010845 0.476686516856114
199209010850 0.478196575033735
199209010855 0.479705554386972
199209010900 0.481205192971585
199209010905 0.482701581761776
199209010910 0.484192031437165
199209010915 0.485677877354837
199209010920 0.487158900494136
199209010925 0.488634379272886
199209010930 0.490104420545651
199209010935 0.491569341574521
199209010940 0.493029569483247
199209010945 0.494484154163395
199209010950 0.495935051616651
199209010955 0.497378796232303
199209011000 0.498819673082209
199209011005 0.500253323801872
199209011010 0.501683269245663
199209011015 0.503108523728226
199209011020 0.504527963657727
199209011025 0.505942364679686
199209011030 0.507352269199109
199209011035 0.50875752346606
199209011040 0.510157423533048
199209011045 0.511552100047748
199209011050 0.512942589954354
199209011055 0.514327267103677
199209011100 0.515707931857938
199209011105 0.517082652555102
199209011110 0.518453767247879
199209011115 0.519819347212633
199209011120 0.521180389592196
199209011125 0.522536022206569
199209011130 0.523888039647097
199209011135 0.525234990745365
199209011140 0.526576386123091
199209011145 0.527914159206076
199209011150 0.529245933726547
199209011155 0.530574100802042
199209011200 0.531896829774576
199209011205 0.533215140170044
199209011210 0.53452891804947
199209011215 0.535837437837152
199209011220 0.537142397628858
199209011225 0.538442250185829
199209011230 0.539737341064321
199209011235 0.541028031205551
199209011240 0.542314617385917
199209011245 0.543596726340611
199209011250 0.544873757393935
199209011255 0.546146730533061
199209011300 0.547414463264003
199209011305 0.548678144742184
199209011310 0.549938440418364
199209011315 0.551192672626732
199209011320 0.552443237842353
199209011325 0.553689915829946
199209011330 0.554932005305709
199209011335 0.556168894042571
199209011340 0.557402969511926
199209011345 0.558631542043123
199209011350 0.559856109277225
199209011355 0.561075602195807
199209011400 0.562292326633848
199209011405 0.563504520913024
199209011410 0.564712017133399
199209011415 0.565914611429166
199209011420 0.567114536871712
199209011425 0.56831012282743
199209011430 0.569500160041119
199209011435 0.570687880486069
199209011440 0.571869964661253
199209011445 0.573049458702213
199209011450 0.574224234978024
199209011455 0.575394769731367
199209011500 0.576561629003942
199209011505 0.57772404875635
199209011510 0.578883350472527
199209011515 0.580037414745832
199209011520 0.581188991557303
199209011525 0.582335768394242
199209011530 0.583478106397014
199209011535 0.584618028166137
199209011540 0.585753338246009
199209011545 0.586884814543497
199209011550 0.588011524115313
199209011555 0.589135869379746
199209011600 0.590256240466438
199209011605 0.591371971206395
199209011610 0.592484639980695
199209011615 0.593593087005777
199209011620 0.594698636824296
199209011625 0.595799717932652
199209011630 0.596897362499879
199209011635 0.597991639236246
199209011640 0.599081680276663
199209011645 0.60016861655048
199209011650 0.60125151683455
199209011655 0.602331048246628
199209011700 0.603407662716985
199209011705 0.604479274423023
199209011710 0.605548095609053
199209011715 0.606614093094107
199209011720 0.607675955482108
199209011725 0.608733750069681
199209011730 0.609789921045563
199209011735 0.61084051714657
199209011740 0.61188915158068
199209011745 0.612933257487836
199209011750 0.613975093465327
199209011755 0.615012552638982
199209011800 0.616046947711824
199209011805 0.61707914601894
199209011810 0.618106629577925
199209011815 0.619130598814511
199209011820 0.620153468038496
199209011825 0.621169701667987
199209011830 0.622185913015707
199209011835 0.623196723219235
199209011840 0.62420563297451
199209011845 0.625210577425744
199209011850 0.626212812754639
199209011855 0.627212173476539
199209011900 0.628207469604691
199209011905 0.62920000282852
199209011910 0.630189966925365
199209011915 0.631176670729547
199209011920 0.63215939402819
199209011925 0.633140203455379
199209011930 0.634117180479159
199209011935 0.635092134381004
199209011940 0.636063049200738
199209011945 0.637031802377442
199209011950 0.637996591912222
199209011955 0.638959662726297
199209012000 0.639918768889589
199209012005 0.640875512577307
199209012010 0.641829249253036
199209012015 0.64277997583373
199209012020 0.643728340681319
199209012025 0.644673147317072
199209012030 0.645615475592421
199209012035 0.646554971214112
199209012040 0.647491864070864
199209012045 0.648425511709936
199209012050 0.649356892913503
199209012055 0.650285193912029
199209012100 0.65121100678421
199209012105 0.652133886116272
199209012110 0.653054603776991
199209012115 0.653971610137722
199209012120 0.654887129402224
199209012125 0.655799834461014
199209012130 0.656708704742659
199209012135 0.657616355976203
199209012140 0.658520599159133
199209012145 0.659422699608366
199209012150 0.660321924644645
199209012155 0.661219038339409
199209012200 0.662113191364272
199209012205 0.663005069516517
199209012210 0.663894738735124
199209012215 0.664780700184092
199209012220 0.665666031812078
199209012225 0.666547649112294
199209012230 0.667427467462949
199209012235 0.668304387877399
199209012240 0.669179035531106
199209012245 0.670051858301895
199209012250 0.670921173712126
199209012255 0.671789008602468
199209012300 0.672654376633994
199209012305 0.67351751481935
199209012310 0.674377974238312
199209012315 0.67523658245005
199209012320 0.676092776950641
199209012325 0.676946346401798
199209012330 0.677798552602419
199209012335 0.67864772854549
199209012340 0.679495124074323
199209012345 0.680340002137316
199209012350 0.68118290777383
199209012355 0.682023482350715
199209020000 0.682862109142539
199209020005 0.683698739815831
199209020010 0.68453285461152
199209020015 0.68536494971617
199209020020 0.686195270797582
199209020025 0.68702321240822
199209020030 0.687849401027212
199209020035 0.688672964835688
199209020040 0.689495374946724
199209020045 0.690315263680646
199209020050 0.691132853770894
199209020055 0.691949000806278
199209020100 0.692763173685555
199209020105 0.693574557636867
199209020110 0.694385286975601
199209020115 0.695193048341522
199209020120 0.695999130832328
199209020125 0.696803855660636
199209020130 0.69760673099582
199209020135 0.69840702849121
199209020140 0.699205655831129
199209020145 0.700002725007389
199209020150 0.700797882440004
199209020155 0.7015910512974
199209020200 0.702382918404857
199209020205 0.703172369201269
199209020210 0.703960464809874
199209020215 0.704746587774283
199209020220 0.705530925608271
199209020225 0.706314442094935
199209020230 0.707094567753583
199209020235 0.707874670802013
199209020240 0.708652054228959
199209020245 0.709428061362381
199209020250 0.710202623559083
199209020255 0.710975198778262
199209020300 0.711746565284548
199209020305 0.712515766597795
199209020310 0.713283976243057
199209020315 0.714050139964713
199209020320 0.714814901677016
199209020325 0.715578105181755
199209020330 0.716339787620958
199209020335 0.71709974028417
199209020340 0.717858452290585
199209020345 0.718615297885371
199209020350 0.719371337454289
199209020355 0.720125101781486
199209020400 0.720877610964135
199209020405 0.721628993424638
199209020410 0.722378474900178
199209020415 0.72312701164243
199209020420 0.723873979023756
199209020425 0.724619263815169
199209020430 0.725363412615812
199209020435 0.726105997963437
199209020440 0.726847467146062
199209020445 0.727587501412303
199209020450 0.728326106407008
199209020455 0.729063195232507
199209020500 0.729799496619964
199209020505 0.730534131741103
199209020510 0.731267949929511
199209020515 0.731999144257457
199209020520 0.73273057410181
199209020525 0.733460066812544
199209020530 0.734188244750269
199209020535 0.734915668609538
199209020540 0.735641220500193
199209020545 0.736366226422237
199209020550 0.737089303167357
199209020555 0.737811692917162
199209020600 0.738533032371586
199209020605 0.739252895832492
199209020610 0.739971468218363
199209020615 0.740689695429201
199209020620 0.741405724237725
199209020625 0.742121501484507
199209020630 0.742835664730598
199209020635 0.743549004760472
199209020640 0.74426107905417
199209020645 0.744972044002659
199209020650 0.745682169224527
199209020655 0.746391026285508
199209020700 0.747098895328937
199209020705 0.747805800348235
199209020710 0.748511484228897
199209020715 0.749216304876127
199209020720 0.749920077928694
199209020725 0.750622843756011
199209020730 0.7513245560865
199209020735 0.75202543366399
199209020740 0.752725138074209
199209020745 0.753423970759587
199209020750 0.754121777092058
199209020755 0.75481899390903
199209020800 0.755514820571985
199209020805 0.756209708787849
199209020810 0.756904144288612
199209020815 0.757597449743178
199209020820 0.75828972759933
199209020825 0.758981630638561
199209020830 0.759671983892179
199209020835 0.760362061338026
199209020840 0.761050900072858
199209020845 0.761739352744152
199209020850 0.762426185435221
199209020855 0.763113180976072
199209020900 0.763798526089161
199209020905 0.764483541892851
199209020910 0.765167476239216
199209020915 0.765851060838021
199209020920 0.766533100816451
199209020925 0.767215155895091
199209020930 0.76789604255528
199209020935 0.768576227000991
199209020940 0.769255621817687
199209020945 0.769934418254808
199209020950 0.770612251061073
199209020955 0.771289368660896
199209021000 0.771966066391435
199209021005 0.772641592242808
199209021010 0.773316937856499
199209021015 0.773991161437989
199209021020 0.774664664016062
199209021025 0.77533780596999
199209021030 0.776010181380009
199209021035 0.776681612745397
199209021040 0.777352826708821
199209021045 0.778022754007791
199209021050 0.778692682950181
199209021055 0.779361314451002
199209021100 0.780029984909641
199209021105 0.780697469659098
199209021110 0.781364541090771
199209021115 0.782031110173174
199209021120 0.782696740523737
199209021125 0.783362067537478
199209021130 0.784026550353855
199209021135 0.784690694760516
199209021140 0.785353928117721
199209021145 0.786017002360897
199209021150 0.786679063290089
199209021155 0.787340897626591
199209021200 0.788001892578098
199209021205 0.788662476378589
199209021210 0.789322464995421
199209021215 0.789981911857813
199209021220 0.790640692803247
199209021225 0.791299082541169
199209021230 0.791956812434865
199209021235 0.7926140233065
199209021240 0.793270690874316
199209021245 0.79392680233087
199209021250 0.794582382759226
199209021255 0.795237428401007
199209021300 0.795891953711188
199209021305 0.796545951732796
199209021310 0.797199456734755
199209021315 0.797852383032409
199209021320 0.798504914672653
199209021325 0.799156873753399
199209021330 0.799808329378209
199209021335 0.8004593181131
199209021340 0.801109824562097
199209021345 0.801759853846879
199209021350 0.802409379753441
199209021355 0.803058407004651
199209021400 0.803707119082851
199209021405 0.804355222053255
199209021410 0.805002973450667
199209021415 0.805650198272937
199209021420 0.806296964971732
199209021425 0.806943315057861
199209021430 0.807589154155635
199209021435 0.808234561071997
199209021440 0.808879608670957
199209021445 0.809524180967747
199209021450 0.810168265599825
199209021455 0.810811914580446
199209021500 0.811455145028726
199209021505 0.812097953526956
199209021510 0.812740340319505
199209021515 0.813382300755786
199209021520 0.814023835065699
199209021525 0.814664948251154
199209021530 0.815305640338089
199209021535 0.815945914284139
199209021540 0.816585770334968
199209021545 0.817225210287116
199209021550 0.817864234417171
199209021555 0.81850284345166
199209021600 0.819141038235379
199209021605 0.819778822967092
199209021610 0.82041619717161
199209021615 0.821053161708183
199209021620 0.82168971671887
199209021625 0.822325863513235
199209021630 0.822961602392108
199209021635 0.823596933762823
199209021640 0.824231857414339
199209021645 0.824866373484686
199209021650 0.825500481740439
199209021655 0.826134181953499
199209021700 0.826767473736713
199209021705 0.827400356461569
199209021710 0.828032829651547
199209021715 0.828664892284452
199209021720 0.829296543847121
199209021725 0.829927782884262
199209021730 0.830558608879325
199209021735 0.831189019884929
199209021740 0.831819015400052
199209021745 0.832448592911827
199209021750 0.833077751905282
199209021755 0.833706489246933
199209021800 0.834334804234973
199209021805 0.834962693036866
199209021810 0.835590157542584
199209021815 0.836217179033042
199209021820 0.836843779781648
199209021825 0.837469931750284
199209021830 0.838095655820498
199209021835 0.838720935805676
199209021840 0.839345777620637
199209021845 0.839970167047399
199209021850 0.840594118719736
199209021855 0.84121761267295
199209021900 0.841840656964038
199209021905 0.842463252635501
199209021910 0.843085381651529
199209021915 0.843707057892929
199209021920 0.84432827167932
199209021925 0.844949009948835
199209021930 0.845569284084137
199209021935 0.846189096400992
199209021940 0.846808422085737
199209021945 0.847427271532827
199209021950 0.84804563725781
199209021955 0.84866353562073
199209022000 0.849280931481757
199209022005 0.849897820837038
199209022010 0.85051423920146
199209022015 0.851130163529211
199209022020 0.851745572513393
199209022025 0.852360443612005
199209022030 0.852974842740051
199209022035 0.853588768361235
199209022040 0.854202118363683
199209022045 0.854814869672409
199209022050 0.855427214105884
199209022055 0.856039118181989
199209022100 0.856650287928789
199209022105 0.857260927667825
199209022110 0.857871127345783
199209022115 0.858480804953465
199209022120 0.859089814087387
199209022125 0.859698273597705
199209022130 0.860306269790159
199209022135 0.860913669831636
199209022140 0.861520464069198
199209022145 0.862126659665402
199209022150 0.862732347345314
199209022155 0.86333744343613
199209022200 0.863941901443293
199209022205 0.864545787634211
199209022210 0.865149059216248
199209022215 0.865751746246487
199209022220 0.866353811561978
199209022225 0.86695529688344
199209022230 0.867556112194178
199209022235 0.868156299031249
199209022240 0.868755879472601
199209022245 0.86935480104414
199209022250 0.8699530852943
199209022255 0.87055072430197
199209022300 0.871147699612881
199209022305 0.871744017766957
199209022310 0.872339663642868
199209022315 0.872934634606388
199209022320 0.873528926065722
199209022325 0.874122529836672
199209022330 0.874715441319487
199209022335 0.875307653626159
199209022340 0.875899160934515
199209022345 0.876489956705446
199209022350 0.877080035316031
199209022355 0.877669389986975
199209030000 0.878258015001244
199209030005 0.878845903543973
199209030010 0.87943304966224
199209030015 0.88001944652989
199209030020 0.880605087995808
199209030025 0.881189967203198
199209030030 0.881774077845289
199209030035 0.882357413027273
199209030040 0.882939966312458
199209030045 0.883521730766334
199209030050 0.884102699839507
199209030055 0.884682866557083
199209030100 0.885262224269833
199209030105 0.885840765962167
199209030110 0.886418484895142
199209030115 0.88699537401259
199209030120 0.887571426494157
199209030125 0.888146635243666
199209030130 0.888720993366433
199209030135 0.889294493727279
199209030140 0.889867129363435
199209030145 0.890438893102129
199209030150 0.891009777918241
199209030155 0.891579776603366
199209030200 0.892148882076457
199209030205 0.892717087075283
199209030210 0.893284384535433
199209030215 0.893850766783182
199209030220 0.894416227353101
199209030225 0.894980756523612
199209030230 0.89554435160546
199209030235 0.896106998693409
199209030240 0.896668696714646
199209030245 0.897229435232055
199209030250 0.897789206401292
199209030255 0.898348006014997
199209030300 0.89890582184389
199209030305 0.899462651325238
199209030310 0.900018484093511
199209030315 0.900573314749457
199209030320 0.901127134615413
199209030325 0.901679936980363
199209030330 0.90223171556606
199209030335 0.902782459817866
199209030340 0.903332165411067
199209030345 0.903880822635221
199209030350 0.904428426020898
199209030355 0.904974968115308
199209030400 0.905520440140503
199209030405 0.906064836095611
199209030410 0.906608147084738
199209030415 0.907150366980437
199209030420 0.907691486745615
199209030425 0.90823149983568
199209030430 0.9087703983328
199209030435 0.909308175316994
199209030440 0.909844823173547
199209030445 0.910380334491998
199209030450 0.910914701688112
199209030455 0.911447917428375
199209030500 0.911979974524455
199209030505 0.912510865661448
199209030510 0.91304058317618
199209030515 0.913569119595419
199209030520 0.914096467516902
199209030525 0.914622619951913
199209030530 0.915147569574637
199209030535 0.915671309316031
199209030540 0.916193831028925
199209030545 0.916715128030737
199209030550 0.917235193043094
199209030555 0.91775401895783
199209030600 0.918271598177914
199209030605 0.918787923121763
199209030610 0.919302986523107
199209030615 0.91981678131057
199209030620 0.92032930067991
199209030625 0.920840537951596
199209030630 0.921350485385457
199209030635 0.921859135831038
199209030640 0.922366481896287
199209030645 0.922872516818751
199209030650 0.923377234082771
199209030655 0.923880626612457
199209030700 0.92438268721101
199209030705 0.924883408233744
199209030710 0.925382782557441
199209030715 0.925880803229236
199209030720 0.92637746360182
199209030725 0.926872757152404
199209030730 0.927366677653046
199209030735 0.927859218420648
199209030740 0.928350372042647
199209030745 0.928840131420672
199209030750 0.929328489747158
199209030755 0.929815440525097
199209030800 0.930300977335453
199209030805 0.930785094048606
199209030810 0.931267784184035
199209030815 0.931749040630141
199209030820 0.932228856268584
199209030825 0.932707224612229
199209030830 0.933184139299571
199209030835 0.933659594159652
199209030840 0.934133583087699
199209030845 0.934606100162327
199209030850 0.935077139660813
199209030855 0.935546695007652
199209030900 0.936014759338074
199209030905 0.936481325970106
199209030910 0.936946388739931
199209030915 0.937409941644432
199209030920 0.937871978845157
199209030925 0.938332494564868
199209030930 0.938791483130649
199209030935 0.939248939049047
199209030940 0.939704856687076
199209030945 0.940159229481801
199209030950 0.940612050756961
199209030955 0.941063314503433
199209031000 0.941513015170112
199209031005 0.941961147365129
199209031010 0.942407705726561
199209031015 0.942852684886469
199209031020 0.943296079475161
199209031025 0.943737884165953
199209031030 0.944178093771338
199209031035 0.944616703476746
199209031040 0.945053708095234
199209031045 0.945489101238915
199209031050 0.94592287675875
199209031055 0.946355029269668
199209031100 0.94678555381287
199209031105 0.947214445575922
199209031110 0.947641699772304
199209031115 0.948067311604998
199209031120 0.948491276280319
199209031125 0.948913589033924
199209031130 0.949334245175128
199209031135 0.94975324014956
199209031140 0.950170569476577
199209031145 0.950586228155598
199209031150 0.951000210602611
199209031155 0.95141251165433
199209031200 0.951823126793522
199209031205 0.952232051813947
199209031210 0.952639282580758
199209031215 0.9530448149443
199209031220 0.953448644732844
199209031225 0.953850767769294
199209031230 0.954251179891535
199209031235 0.954649876971473
199209031240 0.955046854933095
199209031245 0.95544210977168
199209031250 0.955835637570789
199209031255 0.956227434476877
199209031300 0.95661749652238
199209031305 0.957005819431719
199209031310 0.957392398894395
199209031315 0.957777230959134
199209031320 0.958160312037206
199209031325 0.958541638720929
199209031330 0.958921207654254
199209031335 0.959299015486276
199209031340 0.959675058869651
199209031345 0.960049334473887
199209031350 0.960421839000842
199209031355 0.960792569199246
199209031400 0.961161521879676
199209031405 0.961528693935677
199209031410 0.961894082391073
199209031415 0.962257684608494
199209031420 0.962619497486519
199209031425 0.962979511946559
199209031430 0.963337728016424
199209031435 0.96369414459211
199209031440 0.964048759055215
199209031445 0.964401569016612
199209031450 0.964752571726556
199209031455 0.965101764611405
199209031500 0.965449145115285
199209031505 0.965794710728715
199209031510 0.966138459005274
199209031515 0.966480387541966
199209031520 0.966820493988103
199209031525 0.967158776043717
199209031530 0.967495231460819
199209031535 0.967829858045136
199209031540 0.968162653656841
199209031545 0.968493616211422
199209031550 0.968822743680249
199209031555 0.969150034090908
199209031600 0.969475485527501
199209031605 0.96979909613077
199209031610 0.970120864098243
199209031615 0.970440787684277
199209031620 0.970758865200117
199209031625 0.971075095013884
199209031630 0.971389475550571
199209031635 0.971702005291976
199209031640 0.972012682776643
199209031645 0.972321506599744
199209031650 0.972628475412996
199209031655 0.972933587924523
199209031700 0.973236842898763
199209031705 0.973538239156354
199209031710 0.973837775574067
199209031715 0.974135451084724
199209031720 0.974431264677169
199209031725 0.974725215396236
199209031730 0.975017302342756
199209031735 0.975307524673557
199209031740 0.975595881601498
199209031745 0.975882372395507
199209031750 0.976166996380618
199209031755 0.976449752938043
199209031800 0.976730641505233
199209031805 0.977009661575935
199209031810 0.977286812700271
199209031815 0.977562094484804
199209031820 0.977835506592603
199209031825 0.978107048743322
199209031830 0.978376720713266
199209031835 0.978644522335463
199209031840 0.97891045349974
199209031845 0.979174514152794
199209031850 0.979436704298273
199209031855 0.979697023996856
199209031900 0.97995547336634
199209031905 0.980212052581736
199209031910 0.980466761875355
199209031915 0.980719601536927
199209031920 0.980970571913703
199209031925 0.981219673410575
199209031930 0.981466906490204
199209031935 0.981712271673152
199209031940 0.981955769538033
199209031945 0.982197400721713
199209031950 0.98243716591947
199209031955 0.982675065885028
199209032000 0.982911101430753
199209032005 0.983145273427942
199209032010 0.983377582807073
199209032015 0.983608030557736
199209032020 0.983836617729043
199209032025 0.984063345429864
199209032030 0.984288214829065
199209032035 0.984511227155751
199209032040 0.984732383699527
199209032045 0.984951685810762
199209032050 0.985169134900881
199209032055 0.985384732442651
199209032100 0.9855984799705
199209032105 0.985810379080832
199209032110 0.986020431432365
199209032115 0.986228638746477
199209032120 0.986435002807629
199209032125 0.986639525464926
199209032130 0.986842208630371
199209032135 0.987043054278966
199209032140 0.987242064450417
199209032145 0.987439241249867
199209032150 0.987634586848248
199209032155 0.987828103482545
199209032200 0.988019793456252
199209032205 0.988209659138697
199209032210 0.988397702966791
199209032215 0.98858392744712
199209032220 0.988768335154857
199209032225 0.988950928733963
199209032230 0.989131710897997
199209032235 0.989310684430855
199209032240 0.989487852187423
199209032245 0.989663217094232
199209032250 0.989836782150149
199209032255 0.990008550427085
199209032300 0.990178525070723
199209032305 0.990346709301258
199209032310 0.990513106414171
199209032315 0.990677719781016
199209032320 0.990840552850237
199209032325 0.991001609148006
199209032330 0.991160892279094
199209032335 0.991318405927755
199209032340 0.991474153858651
199209032345 0.991628139917786
199209032350 0.991780368033486
199209032355 0.991930842217389
199209040000 0.992079566565482
199209040005 0.992226545259148
199209040010 0.992371782566256
199209040015 0.992515282842278
199209040020 0.992657050531426
199209040025 0.992797090167789
199209040030 0.992935406376535
199209040035 0.993072003867604
199209040040 0.993206887428588
199209040045 0.993340061975548
199209040050 0.993471532531975
199209040055 0.993601304207217
199209040100 0.993729382199074
199209040105 0.993855771804151
199209040110 0.993980478423207
199209040115 0.994103507561458
199209040120 0.994224864831092
199209040125 0.99434455595512
199209040130 0.994462586760116
199209040135 0.994578963171335
199209040140 0.994693691221218
199209040145 0.9948067770591
199209040150 0.99491822695482
199209040155 0.995028047298506
199209040200 0.995136244600396
199209040205 0.99524282549184
199209040210 0.995347796726925
199209040215 0.995451165184342
199209040220 0.995552937869355
199209040225 0.995653121915826
199209040230 0.995751724588291
199209040235 0.995848753284018
199209040240 0.995944215535021
199209040245 0.996038119009837
199209040250 0.99613047151605
199209040255 0.996221281003302
199209040300 0.9963105555655
199209040305 0.996398303442444
199209040310 0.996484533021813
199209040315 0.996569252841707
199209040320 0.996652471593063
199209040325 0.996734198121653
199209040330 0.996814441430192
199209040335 0.996893210681389
199209040340 0.996970515199285
199209040345 0.997046364461086
199209040350 0.997120768098383
199209040355 0.997193735928934
199209040400 0.997265277930463
199209040405 0.997335404229339
199209040410 0.997404125127942
199209040415 0.997471451107673
199209040420 0.997537392799165
199209040425 0.997601961031156
199209040430 0.99766516694287
199209040435 0.997727021909239
199209040440 0.997787537419819
199209040445 0.997846725109557
199209040450 0.997904596778801
199209040455 0.997961164425614
199209040500 0.998016440306709
199209040505 0.998070436901328
199209040510 0.998123166811546
199209040515 0.998174642861853
199209040520 0.998224878008216
199209040525 0.998273885503921
199209040530 0.998321678723449
199209040535 0.998368271230415
199209040540 0.99841367701409
199209040545 0.99845791039501
199209040550 0.998500985488987
199209040555 0.998542916416316
199209040600 0.998583717728107
199209040605 0.998623404431245
199209040610 0.998661991780796
199209040615 0.998699495156617
199209040620 0.99873592957275
199209040625 0.998771310296343
199209040630 0.998805653485802
199209040635 0.998838975043266
199209040640 0.998871290913312
199209040645 0.998902617722408
199209040650 0.998932972398414
199209040655 0.998962371729631
199209040700 0.998990832055941
199209040705 0.999018369524229
199209040710 0.999045001398174
199209040715 0.999070745595446
199209040720 0.999095619755501
199209040725 0.999119641088794
199209040730 0.999142827119474
199209040735 0.999165195595463
199209040740 0.999186764016012
199209040745 0.999207550153991
199209040750 0.999227571564594
199209040755 0.999246846327164
199209040800 0.999265393303186
199209040805 0.999283229807965
199209040810 0.999300372497917
199209040815 0.999316840345244
199209040820 0.999332652676927
199209040825 0.999347826255976
199209040830 0.99936237795305
199209040835 0.999376325961479
199209040840 0.999389688938538
199209040845 0.999402483903736
199209040850 0.999414726812256
199209040855 0.999426435422984
199209040900 0.999437629185729
199209040905 0.999448324161593
199209040910 0.999458534473574
199209040915 0.999468277378443
199209040920 0.999477571434764
199209040925 0.99948643225734
199209040930 0.999494873617697
199209040935 0.999502911553307
199209040940 0.999510562528743
199209040945 0.999517841320219
199209040950 0.999524762277801
199209040955 0.999531340233726
199209041000 0.999537588497448
199209041005 0.99954352002934
199209041010 0.999549148779515
199209041015 0.999554488696924
199209041020 0.999559552925896
199209041025 0.999564352440424
199209041030 0.999568897484398
199209041035 0.999573200500984
199209041040 0.999577274722592
199209041045 0.999581131767004
199209041050 0.999584780625909
199209041055 0.999588229707889
199209041100 0.999591489240644
199209041105 0.999594569677625
199209041110 0.999597479717934
199209041115 0.9996002272191
199209041120 0.999602820536933
199209041125 0.999605268238568
199209041130 0.999607578514337
199209041135 0.999609758802718
199209041140 0.999611815527921
199209041145 0.999613754924419
199209041150 0.999615583838104
199209041155 0.999617308681797
199209041200 0.99961893331625
199209041205 0.999620462773208
199209041210 0.999621904630414
199209041215 0.999623264713121
199209041220 0.99962454741777
199209041225 0.999625755426224
199209041230 0.999626891360638
199209041235 0.999627960559561
199209041240 0.999628968557411
199209041245 0.999629918737785
199209041250 0.999630814238821
199209041255 0.999631658460826
199209041300 0.99963245485032
199209041305 0.999633205224377
199209041310 0.999633911153376
199209041315 0.999634576814427
199209041320 0.999635205779978
199209041325 0.999635798493719
199209041330 0.99963635630115
199209041335 0.999636881945411
199209041340 0.999637378728256
199209041345 0.999637849642747
199209041350 0.999638294237116
199209041355 0.999638711660246
199209041400 0.999639105257546
199209041405 0.999639479913094
199209041410 0.99963983636091
199209041415 0.999640172474436
199209041420 0.999640488454943
199209041425 0.999640786910664
199209041430 0.999641069667285
199209041435 0.999641337963722
199209041440 0.999641594135245
199209041445 0.99964183754342
199209041450 0.999642066406915
199209041455 0.99964228281008
199209041500 0.999642489882987
199209041505 0.999642688143301
199209041510 0.999642877141424
199209041515 0.999643057988701
199209041520 0.999643230594944
199209041525 0.999643393655267
199209041530 0.999643548093731
199209041535 0.999643696555539
199209041540 0.999643839776387
199209041545 0.999643976184633
199209041550 0.999644106415602
199209041555 0.999644232379365
199209041600 0.999644354357659
199209041605 0.999644471259846
199209041610 0.999644582436781
199209041615 0.999644689084555
199209041620 0.999644792883746
199209041625 0.999644893964163
199209041630 0.999644991570622
199209041635 0.999645085692107
199209041640 0.999645175963963
199209041645 0.999645262462523
199209041650 0.99964534739488
199209041655 0.999645432217941
199209041700 0.999645514448191
199209041705 0.999645591412952
199209041710 0.99964566448502
199209041715 0.999645737107254
199209041720 0.999645810804601
199209041725 0.999645882979987
199209041730 0.999645950809398
199209041735 0.999646015895475
199209041740 0.99964608103571
199209041745 0.999646146533301
199209041750 0.999646211242271
199209041755 0.999646273402366
199209041800 0.999646333380681
199209041805 0.999646392822618
199209041810 0.999646451717622
199209041815 0.999646510448704
199209041820 0.999646569371856
199209041825 0.999646625531711
199209041830 0.999646677336901
199209041835 0.999646728493588
199209041840 0.999646782915782
199209041845 0.999646838382341
199209041850 0.999646890551006
199209041855 0.99964694052738
199209041900 0.999646990885805
199209041905 0.999647040524216
199209041910 0.999647089176753
199209041915 0.999647137845763
199209041920 0.999647186320505
199209041925 0.999647234739262
199209041930 0.999647284105678
199209041935 0.999647332829929
199209041940 0.999647378969314
199209041945 0.999647424077377
199209041950 0.999647470708763
199209041955 0.999647518315042
199209042000 0.999647564971521
199209042005 0.999647609704981
199209042010 0.999647653874775
199209042015 0.999647699465051
199209042020 0.99964774551698
199209042025 0.999647789719667
199209042030 0.999647832844496
199209042035 0.99964787734243
199209042040 0.999647923543118
199209042045 0.999647968730594
199209042050 0.99964801145794
199209042055 0.999648053978006
199209042100 0.999648097832907
199209042105 0.99964814225449
199209042110 0.999648186590082
199209042115 0.999648230517452
199209042120 0.999648273740648
199209042125 0.999648316110317
199209042130 0.999648358182001
199209042135 0.999648401191212
199209042140 0.999648445009267
199209042145 0.999648487075708
199209042150 0.999648527603355
199209042155 0.99964856867735
199209042200 0.999648609884794
199209042205 0.999648650483949
199209042210 0.999648691245347
199209042215 0.999648733221423
199209042220 0.99964877593626
199209042225 0.999648817438312
199209042230 0.999648857643726
199209042235 0.999648898485675
199209042240 0.999648940702455
199209042245 0.999648982618129
199209042250 0.999649023248066
199209042255 0.99964906412834
199209042300 0.999649105951238
199209042305 0.999649147322496
199209042310 0.999649188142156
199209042315 0.999649227735398
199209042320 0.999649265644928
199209042325 0.999649303686627
199209042330 0.999649343179138
199209042335 0.999649383376405
199209042340 0.999649423149869
199209042345 0.999649461905355
199209042350 0.999649500169209
199209042355 0.999649538641331
199209050000 0.999649577332186
199209050005 0.999649616058951
199209050010 0.999649654828743
199209050015 0.999649694030736
199209050020 0.999649733585
199209050025 0.999649772723287
199209050030 0.99964981122455
199209050035 0.999649849935056
199209050040 0.999649888718115
199209050045 0.999649926968186
199209050050 0.999649965136958
199209050055 0.999650003553655
199209050100 0.999650041111443
199209050105 0.999650078333149
199209050110 0.99965011731531
199209050115 0.999650156691297
199209050120 0.999650194151633
199209050125 0.999650230649547
199209050130 0.999650267052327
199209050135 0.999650303745605
199209050140 0.999650342168806
199209050145 0.99965038082844
199209050150 0.999650417137214
199209050155 0.999650452234602
199209050200 0.999650488273051
199209050205 0.99965052547552
199209050210 0.999650562410468
199209050215 0.999650598556044
199209050220 0.999650634786774
199209050225 0.999650671797334
199209050230 0.999650708999132
199209050235 0.999650745299084
199209050240 0.999650780894495
199209050245 0.999650817610364
199209050250 0.999650855306057
199209050255 0.999650891281123
199209050300 0.999650925980006
199209050305 0.999650961712336
199209050310 0.999650997585136
199209050315 0.999651032979515
199209050320 0.999651069379538
199209050325 0.999651105737621
199209050330 0.999651140669419
199209050335 0.999651175651755
199209050340 0.999651211965642
199209050345 0.99965124859071
199209050350 0.999651284457294
199209050355 0.999651319857881
199209050400 0.999651355088557
199209050405 0.999651390906564
199209050410 0.999651428120814
199209050415 0.999651464661794
199209050420 0.999651498628464
199209050425 0.999651531658154
199209050430 0.999651566296704
199209050435 0.999651602947873
199209050440 0.999651639186145
199209050445 0.999651673597079
199209050450 0.999651707663325
199209050455 0.9996517418935
199209050500 0.999651775616341
199209050505 0.999651809395426
199209050510 0.999651843562866
199209050515 0.999651877662226
199209050520 0.999651911715673
199209050525 0.99965194575611
199209050530 0.99965198004114
199209050535 0.999652014155545
199209050540 0.999652046397289
199209050545 0.999652077073907
199209050550 0.9996521088187
199209050555 0.999652142538081
199209050600 0.999652176597081
199209050605 0.999652209895502
199209050610 0.999652243260112
199209050615 0.999652277480562
199209050620 0.999652311443322
199209050625 0.999652343859985
199209050630 0.999652376019869
199209050635 0.999652409818003
199209050640 0.999652444515447
199209050645 0.999652478365351
199209050650 0.999652511281392
199209050655 0.999652544488306
199209050700 0.999652579403736
199209050705 0.999652614913088
199209050710 0.999652648606904
199209050715 0.999652680381888
199209050720 0.999652711527105
199209050725 0.999652743165599
199209050730 0.999652775888123
199209050735 0.999652809613461
199209050740 0.999652843661384
199209050745 0.999652876761119
199209050750 0.999652908465308
199209050755 0.9996529391434
199209050800 0.999652969599232
199209050805 0.999653001130917
199209050810 0.999653033926265
199209050815 0.999653066535783
199209050820 0.999653097382278
199209050825 0.999653127267279
199209050830 0.999653158487758
199209050835 0.999653190986352
199209050840 0.999653223179791
199209050845 0.999653255171684
199209050850 0.999653287097339
199209050855 0.999653317945629
199209050900 0.9996533468577
199209050905 0.999653375420515
199209050910 0.999653406368861
199209050915 0.999653439021425
199209050920 0.999653469875141
199209050925 0.999653498980644
199209050930 0.999653529007546
199209050935 0.999653560436921
199209050940 0.999653591782509
199209050945 0.999653622579159
199209050950 0.999653653191783
199209050955 0.999653682928751
199209051000 0.999653711805779
199209051005 0.999653740920703
199209051010 0.999653771245557
199209051015 0.999653802402439
199209051020 0.999653833558103
199209051025 0.999653864200734
199209051030 0.999653893817987
199209051035 0.99965392223847
199209051040 0.999653949837244
199209051045 0.9996539781342
199209051050 0.999654008123564
199209051055 0.99965403850043
199209051100 0.999654068208209
199209051105 0.999654097826119
199209051110 0.999654127416623
199209051115 0.999654156863001
199209051120 0.999654186264501
199209051125 0.999654215891515
199209051130 0.999654245879026
199209051135 0.999654275887394
199209051140 0.999654305885521
199209051145 0.999654336971594
199209051150 0.999654368789776
199209051155 0.999654399888836
199209051200 0.999654430132553
199209051205 0.999654459993482
199209051210 0.999654490141471
199209051215 0.999654521131888
199209051220 0.999654553226954
199209051225 0.999654584820303
199209051230 0.999654614614774
199209051235 0.999654644027261
199209051240 0.9996546745566
199209051245 0.999654705688772
199209051250 0.99965473699745
199209051255 0.999654768959863
199209051300 0.999654801376184
199209051305 0.999654832967597
199209051310 0.999654863916847
199209051315 0.999654894888697
199209051320 0.999654925696294
199209051325 0.999654956383795
199209051330 0.999654987146353
199209051335 0.999655018237159
199209051340 0.999655049899463
199209051345 0.99965508191303
199209051350 0.999655113775667
199209051355 0.999655145477553
199209051400 0.999655177309258
199209051405 0.999655208762234
199209051410 0.999655239874115
199209051415 0.999655271221851
199209051420 0.99965530269471
199209051425 0.999655333779887
199209051430 0.999655364560927
199209051435 0.999655395693185
199209051440 0.999655427359279
199209051445 0.999655459220366
199209051450 0.999655491566318
199209051455 0.999655523692533
199209051500 0.999655554546722
199209051505 0.999655584799353
199209051510 0.999655615221169
199209051515 0.999655645952989
199209051520 0.999655677244468
199209051525 0.9996557092326
199209051530 0.999655741221628
199209051535 0.999655771875545
199209051540 0.999655801051815
199209051545 0.999655830200711
199209051550 0.999655861120737
199209051555 0.999655893900441
199209051600 0.999655925179976
199209051605 0.999655953232436
199209051610 0.999655980726354
199209051615 0.99965601010138
199209051620 0.999656041478682
199209051625 0.999656073399541
199209051630 0.999656103957807
199209051635 0.999656132321366
199209051640 0.999656159899798
199209051645 0.99965618887128
199209051650 0.999656219216962
199209051655 0.999656249488665
199209051700 0.999656278922333
199209051705 0.99965630723401
199209051710 0.99965633534648
199209051715 0.99965636449409
199209051720 0.999656394968069
199209051725 0.999656426055009
199209051730 0.999656455992909
199209051735 0.999656484314659
199209051740 0.999656512595851
199209051745 0.999656542035122
199209051750 0.999656571775067
199209051755 0.999656600830194
199209051800 0.999656629498878
199209051805 0.999656658384885
199209051810 0.999656687687849
199209051815 0.999656716955548
199209051820 0.999656745960208
199209051825 0.999656775009217
199209051830 0.999656804296145
199209051835 0.999656833293295
199209051840 0.999656861947852
199209051845 0.999656891106095
199209051850 0.999656920617819
199209051855 0.999656949620758
199209051900 0.999656977784112
199209051905 0.999657005695591
199209051910 0.999657033781663
199209051915 0.999657062199149
199209051920 0.999657091347665
199209051925 0.999657121383398
199209051930 0.99965715096662
199209051935 0.999657179294785
199209051940 0.999657206824475
199209051945 0.999657234513808
199209051950 0.999657262913684
199209051955 0.999657291813665
199209052000 0.999657320803094
199209052005 0.999657349764184
199209052010 0.999657378922534
199209052015 0.99965740806089
199209052020 0.999657436405182
199209052025 0.999657464349731
199209052030 0.999657492612886
199209052035 0.999657521525328
199209052040 0.999657550943839
199209052045 0.99965757983582
199209052050 0.999657608251401
199209052055 0.999657636605766
199209052100 0.99965766504598
199209052105 0.999657693494538
199209052110 0.999657721729417
199209052115 0.99965775004786
199209052120 0.999657778719739
199209052125 0.999657807934812
199209052130 0.999657836995827
199209052135 0.999657865671562
199209052140 0.999657894460701
199209052145 0.999657923417161
199209052150 0.999657952320472
199209052155 0.999657980823452
199209052200 0.999658009139137
199209052205 0.999658038218323
199209052210 0.999658067334686
199209052215 0.999658095898878
199209052220 0.999658124150114
199209052225 0.999658152495452
199209052230 0.999658181183903
199209052235 0.999658209776257
199209052240 0.999658238065481
199209052245 0.99965826671633
199209052250 0.99965829596796
199209052255 0.999658325475833
199209052300 0.999658355040425
199209052305 0.999658384693316
199209052310 0.999658414502261
199209052315 0.999658444448161
199209052320 0.999658474510752
199209052325 0.999658504711359
199209052330 0.999658535049309
199209052335 0.999658565510378
199209052340 0.999658596087568
199209052345 0.999658626788214
199209052350 0.999658657617676
199209052355 0.99965868855564
199209060000 0.999658719583031
199209060005 0.999658750697247
199209060010 0.999658781898966
199209060015 0.999658813180425
199209060020 0.999658844517091
199209060025 0.999658875890316
199209060030 0.999658907296212
199209060035 0.999658938728349
199209060040 0.999658970182908
199209060045 0.99965900165235
199209060050 0.999659033129238
199209060055 0.999659064621534
199209060100 0.999659096125291
199209060105 0.999659127636973
199209060110 0.999659159157317
199209060115 0.999659190657637
199209060120 0.999659222146385
199209060125 0.999659253637772
199209060130 0.999659285104943
199209060135 0.999659316602024
199209060140 0.999659348079429
199209060145 0.99965937947421
199209060150 0.999659411108782
199209060155 0.999659442763775
199209060200 0.999659473828075
199209060205 0.999659504391278
199209060210 0.999659534696111
199209060215 0.999659564645089
199209060220 0.999659594357536
199209060225 0.999659624408689
199209060230 0.999659654870151
199209060235 0.999659685159442
199209060240 0.999659714897725
199209060245 0.999659743892022
199209060250 0.999659772596145
199209060255 0.999659801274956
199209060300 0.999659829576861
199209060305 0.999659857599351
199209060310 0.999659885955068
199209060315 0.999659915089011
199209060320 0.999659943948006
199209060325 0.999659971696917
199209060330 0.999659999539296
199209060335 0.999660027931445
199209060340 0.999660055955116
199209060345 0.999660083073221
199209060350 0.999660109617183
199209060355 0.999660136535058
199209060400 0.999660164537609
199209060405 0.999660192667201
199209060410 0.999660219985841
199209060415 0.999660246756981
199209060420 0.999660274058567
199209060425 0.999660301492936
199209060430 0.999660328498771
199209060435 0.999660354649876
199209060440 0.999660379709502
199209060445 0.999660405239295
199209060450 0.999660432025396
199209060455 0.999660458686557
199209060500 0.999660484774223
199209060505 0.999660510867328
199209060510 0.99966053665595
199209060515 0.999660562013691
199209060520 0.999660587949919
199209060525 0.999660615110908
199209060530 0.999660641763317
199209060535 0.999660667123376
199209060540 0.999660692639023
199209060545 0.999660718858509
199209060550 0.999660744594897
199209060555 0.999660769825692
199209060600 0.999660794774896
199209060605 0.999660819886123
199209060610 0.999660845338891
199209060615 0.999660870897508
199209060620 0.999660896750413
199209060625 0.999660923033718
199209060630 0.999660949605961
199209060635 0.999660976332612
199209060640 0.999661003206775
199209060645 0.999661030274825
199209060650 0.999661057517927
199209060655 0.999661084886824
199209060700 0.999661112375342
199209060705 0.999661140013443
199209060710 0.99966116782229
199209060715 0.999661195794247
199209060720 0.99966122391702
199209060725 0.999661252189661
199209060730 0.999661280608953
199209060735 0.999661309161742
199209060740 0.999661337833289
199209060745 0.999661366611492
199209060750 0.999661395480473
199209060755 0.999661424419578
199209060800 0.999661453412348
199209060805 0.999661482450235
199209060810 0.999661511527729
199209060815 0.999661540639323
199209060820 0.999661569781405
199209060825 0.999661598953127
199209060830 0.999661628153318
199209060835 0.999661657377891
199209060840 0.999661686621225
199209060845 0.999661715878653
199209060850 0.999661745147035
199209060855 0.999661774423439
199209060900 0.999661803703873
199209060905 0.999661832984216
199209060910 0.999661862261839
199209060915 0.999661891535468
199209060920 0.999661920803607
199209060925 0.999661950063495
199209060930 0.999661979312398
199209060935 0.99966200854922
199209060940 0.999662037773661
199209060945 0.999662066984669
199209060950 0.999662096180007
199209060955 0.999662125357071
199209061000 0.99966215451465
199209061005 0.999662183652825
199209061010 0.99966221277131
199209061015 0.999662241868846
199209061020 0.999662270943064
199209061025 0.999662299992086
199209061030 0.999662329016348
199209061035 0.999662358016722
199209061040 0.999662386993099
199209061045 0.999662415943869
199209061050 0.999662444865828
199209061055 0.999662473758753
199209061100 0.999662502624667
199209061105 0.999662531464152
199209061110 0.999662560278141
199209061115 0.999662589061916
199209061120 0.999662617809878
199209061125 0.999662646528233
199209061130 0.999662675218752
199209061135 0.99966270388268
199209061140 0.999662732524987
199209061145 0.999662761122228
199209061150 0.99966278967456
199209061155 0.999662818209445
199209061200 0.999662846702107
199209061205 0.999662875186921
199209061210 0.999662903669617
199209061215 0.99966293202516
199209061220 0.999662960441202
199209061225 0.999662988953094
199209061230 0.99966301711014
199209061235 0.999663045147744
199209061240 0.999663073183858
199209061245 0.999663100379415
199209061250 0.999663126759884
199209061255 0.999663153340106
199209061300 0.999663180175377
199209061305 0.999663205669429
199209061310 0.999663229917852
199209061315 0.999663254949841
199209061320 0.999663281326421
199209061325 0.99966330743424
199209061330 0.999663332313575
199209061335 0.999663356972862
199209061340 0.999663382523112
199209061345 0.999663408410941
199209061350 0.999663433388013
199209061355 0.999663457474959
199209061400 0.999663481506198
199209061405 0.999663505736952
199209061410 0.999663529756589
199209061415 0.999663553901792
199209061420 0.999663578478755
199209061425 0.999663603176543
199209061430 0.99966362790985
199209061435 0.999663652781178
199209061440 0.999663677869678
199209061445 0.999663703168975
199209061450 0.999663728590374
199209061455 0.999663754090505
199209061500 0.999663779672056
199209061505 0.999663805356974
199209061510 0.999663831164685
199209061515 0.999663857090616
199209061520 0.999663883125084
199209061525 0.999663909258809
199209061530 0.999663935488753
199209061535 0.99966396182741
199209061540 0.999663988286649
199209061545 0.999664014856149
199209061550 0.999664041503542
199209061555 0.999664068200617
199209061600 0.999664094941846
199209061605 0.999664121731555
199209061610 0.999664148566355
199209061615 0.999664175435155
199209061620 0.99966420232962
199209061625 0.999664229248869
199209061630 0.999664256193969
199209061635 0.999664283162654
199209061640 0.999664310149845
199209061645 0.99966433715108
199209061650 0.999664364164629
199209061655 0.999664391189407
199209061700 0.999664418222418
199209061705 0.999664445259592
199209061710 0.999664472297922
199209061715 0.999664499336129
199209061720 0.999664526373366
199209061725 0.999664553408072
199209061730 0.999664580438309
199209061735 0.999664607462286
199209061740 0.999664634478708
199209061745 0.999664661486951
199209061750 0.999664688486519
199209061755 0.999664715476376
199209061800 0.999664742454858
199209061805 0.999664769420421
199209061810 0.999664796372424
199209061815 0.999664823310757
199209061820 0.999664850234925
199209061825 0.999664877143817
199209061830 0.999664904036229
199209061835 0.999664930911566
199209061840 0.999664957769888
199209061845 0.999664984611165
199209061850 0.999665011434766
199209061855 0.999665038239659
199209061900 0.999665065025148
199209061905 0.999665091791325
199209061910 0.9996651185385
199209061915 0.999665145266508
199209061920 0.99966517197464
199209061925 0.999665198662024
199209061930 0.999665225328356
199209061935 0.999665251974061
199209061940 0.999665278599531
199209061945 0.999665305204528
199209061950 0.999665331788339
199209061955 0.999665358350442
199209062000 0.999665384891012
199209062005 0.999665411410509
199209062010 0.999665437909038
199209062015 0.999665464386153
199209062020 0.999665490841257
199209062025 0.999665517274325
199209062030 0.999665543685882
199209062035 0.999665570076307
199209062040 0.999665596445409
199209062045 0.999665622792616
199209062050 0.999665649117684
199209062055 0.999665675420989
199209062100 0.999665701703045
199209062105 0.99966572796397
199209062110 0.999665754203372
199209062115 0.999665780420765
199209062120 0.999665806616224
199209062125 0.999665832790383
199209062130 0.999665858943718
199209062135 0.999665885076081
199209062140 0.999665911186863
199209062145 0.999665937275777
199209062150 0.999665963343354
199209062155 0.999665989390351
199209062200 0.999666015416945
199209062205 0.999666041422541
199209062210 0.999666067406496
199209062215 0.999666093369134
199209062220 0.999666119311417
199209062225 0.999666145233841
199209062230 0.999666171136032
199209062235 0.999666197017204
199209062240 0.999666222877206
199209062245 0.999666248716844
199209062250 0.999666274536943
199209062255 0.999666300337551
199209062300 0.999666326117998
199209062305 0.999666351877772
199209062310 0.999666377617272
199209062315 0.999666403337417
199209062320 0.999666429038662
199209062325 0.999666454720661
199209062330 0.999666480382527
199209062335 0.99966650602403
199209062340 0.999666531646145
199209062345 0.9996665572499
199209062350 0.99966658283538
199209062355 0.999666608401738
199209070000 0.999666633948226
199209070005 0.999666659475346
199209070010 0.999666684984233
199209070015 0.999666710475364
199209070020 0.999666735948229
199209070025 0.999666761402059
199209070030 0.999666786836918
199209070035 0.999666812253647
199209070040 0.999666837652879
199209070045 0.999666863034519
199209070050 0.999666888398056
199209070055 0.999666913743277
199209070100 0.999666939070577
199209070105 0.999666964380499
199209070110 0.999666989673234
199209070115 0.999667014948604
199209070120 0.999667040206442
199209070125 0.999667065446883
199209070130 0.999667090670264
199209070135 0.999667115876779
199209070140 0.999667141066367
199209070145 0.999667166238936
199209070150 0.999667191394621
199209070155 0.999667216533707
199209070200 0.999667241656424
199209070205 0.999667266762769
199209070210 0.999667291852596
199209070215 0.999667316925925
199209070220 0.999667341983024
199209070225 0.999667367024177
199209070230 0.999667392049491
199209070235 0.999667417058872
199209070240 0.999667442052222
199209070245 0.999667467029677
199209070250 0.999667491991536
199209070255 0.999667516937985
199209070300 0.999667541869014
199209070305 0.999667566784555
199209070310 0.999667591684691
199209070315 0.999667616569661
199209070320 0.999667641439687
199209070325 0.999667666294817
199209070330 0.999667691134905
199209070335 0.999667715959883
199209070340 0.999667740769954
199209070345 0.999667765565453
199209070350 0.99966779034655
199209070355 0.999667815113142
199209070400 0.999667839865243
199209070405 0.999667864603004
199209070410 0.999667889326614
199209070415 0.999667914036179
199209070420 0.999667938731567
199209070425 0.999667963412646
199209070430 0.999667988079636
199209070435 0.999668012732968
199209070440 0.999668037372844
199209070445 0.999668061999042
199209070450 0.999668086611327
199209070455 0.999668111209872
199209070500 0.999668135795116
199209070505 0.999668160367286
199209070510 0.999668184926234
199209070515 0.999668209471732
199209070520 0.999668234003828
199209070525 0.999668258522879
199209070530 0.999668283029204
199209070535 0.999668307522792
199209070540 0.99966833200345
199209070545 0.999668356471123
199209070550 0.999668380926013
199209070555 0.999668405368392
199209070600 0.999668429798375
199209070605 0.99966845421591
199209070610 0.999668478620967
199209070615 0.999668503013646
199209070620 0.999668527394107
199209070625 0.99966855176244
199209070630 0.999668576118664
199209070635 0.999668600462797
199209070640 0.999668624794935
199209070645 0.99966864911521
199209070650 0.999668673423774
199209070655 0.99966869772062
199209070700 0.999668722005724
199209070705 0.999668746279132
199209070710 0.99966877054097
199209070715 0.99966879479137
199209070720 0.999668819030354
199209070725 0.999668843257912
199209070730 0.999668867474136
199209070735 0.999668891679226
199209070740 0.999668915873283
199209070745 0.999668940056229
199209070750 0.999668964227968
199209070755 0.999668988388595
199209070800 0.999669012538341
199209070805 0.999669036677343
199209070810 0.99966906080555
199209070815 0.999669084922995
199209070820 0.999669109029836
199209070825 0.99966913312614
199209070830 0.999669157211835
199209070835 0.999669181286867
199209070840 0.999669205351355
199209070845 0.999669229405558
199209070850 0.999669253449602
199209070855 0.999669277483389
199209070900 0.999669301506882
199209070905 0.999669325520175
199209070910 0.999669349523413
199209070915 0.999669373516676
199209070920 0.999669397499922
199209070925 0.999669421473135
199209070930 0.999669445436428
199209070935 0.999669469389975
199209070940 0.999669493333851
199209070945 0.999669517268
199209070950 0.999669541192383
199209070955 0.999669565107082
199209071000 0.99966958901222
199209071005 0.99966961290787
199209071010 0.999669636794062
199209071015 0.9996696606708
199209071020 0.999669684538138
199209071025 0.999669708396199
199209071030 0.99966973224503
199209071035 0.999669756084651
199209071040 0.999669779915067
199209071045 0.9996698037363
199209071050 0.999669827548441
199209071055 0.999669851351587
199209071100 0.999669875145769
199209071105 0.999669898930981
199209071110 0.99966992270724
199209071115 0.999669946474611
199209071120 0.99966997023321
199209071125 0.9996699939831
199209071130 0.999670017724252
199209071135 0.999670041456667
199209071140 0.999670065180441
199209071145 0.999670088895705
199209071150 0.999670112602471
199209071155 0.999670136300662
199209071200 0.999670159990261
199209071205 0.99967018367139
199209071210 0.999670207344202
199209071215 0.999670231008735
199209071220 0.999670254664905
199209071225 0.999670278312735
199209071230 0.99967030195235
199209071235 0.999670325583843
199209071240 0.999670349207297
199209071245 0.999670372822619
199209071250 0.999670396429786
199209071255 0.999670420028949
199209071300 0.999670443620092
199209071305 0.999670467203077
199209071310 0.999670490778008
199209071315 0.999670514345123
199209071320 0.99967053790452
199209071325 0.999670561456151
199209071330 0.999670584999996
199209071335 0.999670608536046
199209071340 0.999670632064263
199209071345 0.99967065558472
199209071350 0.99967067909757
199209071355 0.999670702602889
199209071400 0.999670726100603
199209071405 0.99967074959067
199209071410 0.999670773073165
199209071415 0.999670796548198
199209071420 0.999670820015805
199209071425 0.999670843476018
199209071430 0.999670866928842
199209071435 0.999670890374227
199209071440 0.999670913812192
199209071445 0.999670937242818
199209071450 0.999670960666164
199209071455 0.999670984082267
199209071500 0.999671007491172
199209071505 0.999671030892913
199209071510 0.99967105428747
199209071515 0.999671077674814
199209071520 0.999671101055054
199209071525 0.999671124428283
199209071530 0.999671147794359
199209071535 0.999671171153301
199209071540 0.999671194505365
199209071545 0.999671217850457
199209071550 0.999671241188342
199209071555 0.999671264519232
199209071600 0.999671287843368
199209071605 0.999671311160746
199209071610 0.999671334471305
199209071615 0.999671357774951
199209071620 0.999671381071593
199209071625 0.999671404361355
199209071630 0.999671427644409
199209071635 0.999671450920856
199209071640 0.999671474190748
199209071645 0.999671497453979
199209071650 0.999671520710339
199209071655 0.999671543959847
199209071700 0.999671567202839
199209071705 0.999671590439416
199209071710 0.999671613669291
199209071715 0.999671636892362
199209071720 0.999671660108871
199209071725 0.999671683319048
199209071730 0.999671706522848
199209071735 0.999671729720123
199209071740 0.999671752910843
199209071745 0.999671776095066
199209071750 0.999671799272851
199209071755 0.99967182244423
199209071800 0.999671845609227
199209071805 0.999671868767848
199209071810 0.999671891920153
199209071815 0.999671915066224
199209071820 0.999671938205961
199209071825 0.99967196133934
199209071830 0.999671984466429
199209071835 0.99967200758719
199209071840 0.999672030701654
199209071845 0.999672053809969
199209071850 0.999672076912174
199209071855 0.999672100008114
199209071900 0.999672123097815
199209071905 0.999672146181496
199209071910 0.999672169259136
199209071915 0.999672192330535
199209071920 0.99967221539568
199209071925 0.999672238454732
199209071930 0.999672261507778
199209071935 0.9996722845548
199209071940 0.999672307595784
199209071945 0.999672330630729
199209071950 0.999672353659633
199209071955 0.999672376682515
199209072000 0.999672399699391
199209072005 0.999672422710303
199209072010 0.999672445715307
199209072015 0.99967246871437
199209072020 0.999672491707446
199209072025 0.999672514694586
199209072030 0.999672537675871
199209072035 0.999672560651287
199209072040 0.999672583620782
199209072045 0.99967260658439
199209072050 0.99967262954215
199209072055 0.99967265249406
199209072100 0.99967267544016
199209072105 0.999672698380474
199209072110 0.99967272131498
199209072115 0.999672744243686
199209072120 0.999672767166625
199209072125 0.999672790083807
199209072130 0.999672812995219
199209072135 0.999672835900881
199209072140 0.999672858800769
199209072145 0.999672881694927
199209072150 0.999672904583464
199209072155 0.999672927466354
199209072200 0.99967295034356
199209072205 0.99967297321507
199209072210 0.999672996080851
199209072215 0.999673018940891
199209072220 0.999673041795338
199209072225 0.999673064644277
199209072230 0.999673087487583
199209072235 0.999673110325178
199209072240 0.999673133157154
199209072245 0.99967315598359
199209072250 0.999673178804453
199209072255 0.999673201619739
199209072300 0.999673224429474
199209072305 0.999673247233648
199209072310 0.999673270032235
199209072315 0.999673292825291
199209072320 0.999673315612903
199209072325 0.999673338395039
199209072330 0.999673361171566
199209072335 0.999673383942532
199209072340 0.999673406708139
199209072345 0.99967342946836
199209072350 0.99967345222293
199209072355 0.999673474971872
199209080000 0.999673497715577
199209080005 0.999673520454109
199209080010 0.999673543187035
199209080015 0.999673565914269
199209080020 0.999673588636155
199209080025 0.999673611352728
199209080030 0.999673634063829
199209080035 0.99967365676951
199209080040 0.999673679469896
199209080045 0.999673702164978
199209080050 0.999673724854655
199209080055 0.99967374753884
199209080100 0.999673770217596
199209080105 0.99967379289113
199209080110 0.999673815559419
199209080115 0.999673838222375
199209080120 0.999673860879953
199209080125 0.999673883532077
199209080130 0.999673906178841
199209080135 0.999673928820391
199209080140 0.999673951456707
199209080145 0.999673974087707
199209080150 0.99967399671331
199209080155 0.999674019333619
199209080200 0.999674041948789
199209080205 0.999674064558713
199209080210 0.999674087163298
199209080215 0.999674109762617
199209080220 0.999674132356708
199209080225 0.999674154945517
199209080230 0.999674177529055
199209080235 0.999674200107392
199209080240 0.999674222680531
199209080245 0.999674245248406
199209080250 0.999674267811043
199209080255 0.999674290368484
199209080300 0.999674312920754
199209080305 0.999674335467865
199209080310 0.99967435800978
199209080315 0.999674380546442
199209080320 0.99967440307786
199209080325 0.999674425604174
199209080330 0.999674448125428
199209080335 0.999674470641508
199209080340 0.999674493152301
199209080345 0.999674515657842
199209080350 0.999674538158357
199209080355 0.999674560653865
199209080400 0.999674583144141
199209080405 0.999674605629192
199209080410 0.99967462810918
199209080415 0.999674650584074
199209080420 0.999674673053765
199209080425 0.999674695518348
199209080430 0.999674717977877
199209080435 0.999674740432264
199209080440 0.999674762881593
199209080445 0.999674785325908
199209080450 0.999674807765052
199209080455 0.999674830199041
199209080500 0.999674852628007
199209080505 0.999674875051932
199209080510 0.999674897470674
199209080515 0.999674919884287
199209080520 0.999674942293031
199209080525 0.999674964696877
199209080530 0.999674987095536
199209080535 0.999675009488961
199209080540 0.999675031877421
199209080545 0.999675054260963
199209080550 0.999675076639396
199209080555 0.99967509901273
199209080600 0.999675121381048
199209080605 0.999675143744406
199209080610 0.999675166102858
199209080615 0.99967518845627
199209080620 0.999675210804534
199209080625 0.999675233147766
199209080630 0.999675255486098
199209080635 0.999675277819467
199209080640 0.999675300147786
199209080645 0.99967532247109
199209080650 0.999675344789436
199209080655 0.999675367102795
199209080700 0.999675389411122
199209080705 0.99967541171452
199209080710 0.999675434013036
199209080715 0.999675456306552
199209080720 0.999675478595026
199209080725 0.999675500878556
199209080730 0.99967552315719
199209080735 0.999675545430878
199209080740 0.999675567699628
199209080745 0.99967558996341
199209080750 0.99967561222219
199209080755 0.999675634476016
199209080800 0.999675656724958
199209080805 0.999675678969022
199209080810 0.99967570120819
199209080815 0.999675723442382
199209080820 0.999675745671594
199209080825 0.999675767895924
199209080830 0.999675790115386
199209080835 0.999675812329938
199209080840 0.999675834539591
199209080845 0.999675856744319
199209080850 0.999675878944102
199209080855 0.999675901139028
199209080900 0.999675923329127
199209080905 0.999675945514305
199209080910 0.999675967694484
199209080915 0.999675989869816
199209080920 0.999676012040392
199209080925 0.999676034206073
199209080930 0.99967605636683
199209080935 0.999676078522723
199209080940 0.99967610067374
199209080945 0.999676122819878
199209080950 0.999676144961174
199209080955 0.999676167097634
199209081000 0.999676189229233
199209081005 0.999676211355964
199209081010 0.999676233477844
199209081015 0.9996762555949
199209081020 0.999676277707124
199209081025 0.999676299814509
199209081030 0.999676321917046
199209081035 0.999676344014709
199209081040 0.999676366107567
199209081045 0.999676388195674
199209081050 0.999676410278956
199209081055 0.999676432357365
199209081100 0.999676454430915
199209081105 0.999676476499645
199209081110 0.999676498563659
199209081115 0.999676520622887
199209081120 0.999676542677241
199209081125 0.999676564726772
199209081130 0.999676586771545
199209081135 0.999676608811529
199209081140 0.999676630846691
199209081145 0.999676652877058
199209081150 0.999676674902663
199209081155 0.999676696923487
199209081200 0.999676718939521
199209081205 0.999676740950773
199209081210 0.999676762957255
199209081215 0.99967678495897
199209081220 0.999676806955902
199209081225 0.999676828948059
199209081230 0.999676850935463
199209081235 0.999676872918084
199209081240 0.999676894895932
199209081245 0.999676916869088
199209081250 0.999676938837489
199209081255 0.99967696080109
199209081300 0.999676982759964
199209081305 0.999677004714139
199209081310 0.999677026663548
199209081315 0.999677048608163
199209081320 0.999677070548034
199209081325 0.999677092483202
199209081330 0.999677114413679
199209081335 0.999677136339392
199209081340 0.999677158260323
199209081345 0.999677180176576
199209081350 0.999677202088173
199209081355 0.999677223995046
199209081400 0.999677245897139
199209081405 0.999677267794462
199209081410 0.999677289687133
199209081415 0.999677311575161
199209081420 0.999677333458463
199209081425 0.99967735533706
199209081430 0.999677377210943
199209081435 0.999677399080081
199209081440 0.999677420944526
199209081445 0.9996774428043
199209081450 0.999677464659435
199209081455 0.999677486509931
199209081500 0.999677508355709
199209081505 0.999677530196709
199209081510 0.999677552032998
199209081515 0.999677573864712
199209081520 0.999677595691819
199209081525 0.999677617514203
199209081530 0.999677639331909
199209081535 0.999677661144933
199209081540 0.999677682953231
199209081545 0.999677704756883
199209081550 0.999677726555938
199209081555 0.999677748350344
199209081600 0.99967777014009
199209081605 0.999677791925184
199209081610 0.999677813705605
199209081615 0.999677835481365
199209081620 0.999677857252525
199209081625 0.99967787901908
199209081630 0.99967790078094
199209081635 0.999677922538129
199209081640 0.999677944290726
199209081645 0.999677966038696
199209081650 0.999677987781995
199209081655 0.999678009520684
199209081700 0.999678031254787
199209081705 0.999678052984286
199209081710 0.999678074709136
199209081715 0.999678096429306
199209081720 0.999678118144862
199209081725 0.999678139855894
199209081730 0.999678161562355
199209081735 0.999678183264125
199209081740 0.999678204961241
199209081745 0.999678226653802
199209081750 0.99967824834183
199209081755 0.999678270025251
199209081800 0.99967829170404
199209081805 0.999678313378189
199209081810 0.999678335047776
199209081815 0.999678356712843
199209081820 0.999678378373296
199209081825 0.999678400029123
199209081830 0.999678421680415
199209081835 0.999678443327144
199209081840 0.999678464969213
199209081845 0.999678486606691
199209081850 0.999678508239692
199209081855 0.999678529868155
199209081900 0.999678551491961
199209081905 0.99967857311119
199209081910 0.999678594725941
199209081915 0.999678616336146
199209081920 0.999678637941713
199209081925 0.999678659542726
199209081930 0.999678681139231
199209081935 0.999678702731171
199209081940 0.999678724318555
199209081945 0.99967874590138
199209081950 0.999678767479662
199209081955 0.999678789053458
199209082000 0.999678810622724
199209082005 0.999678832187422
199209082010 0.999678853747607
199209082015 0.999678875303283
199209082020 0.999678896854368
199209082025 0.999678918400887
199209082030 0.999678939942964
199209082035 0.999678961480536
199209082040 0.999678983013515
199209082045 0.999679004541953
199209082050 0.99967902606592
199209082055 0.99967904758545
199209082100 0.999679069100459
199209082105 0.999679090610874
199209082110 0.999679112116779
199209082115 0.999679133618249
199209082120 0.999679155115232
199209082125 0.999679176607684
199209082130 0.999679198095632
199209082135 0.999679219579086
199209082140 0.999679241058048
199209082145 0.999679262532535
199209082150 0.999679284002549
199209082155 0.999679305468034
199209082200 0.999679326929038
199209082205 0.999679348385617
199209082210 0.999679369837715
199209082215 0.999679391285306
199209082220 0.999679412728423
199209082225 0.999679434167063
199209082230 0.999679455601274
199209082235 0.999679477031027
199209082240 0.999679498456238
199209082245 0.999679519876956
199209082250 0.999679541293315
199209082255 0.999679562705261
199209082300 0.9996795841127
199209082305 0.999679605515667
199209082310 0.99967962691417
199209082315 0.999679648308229
199209082320 0.999679669697854
199209082325 0.999679691083037
199209082330 0.999679712463753
199209082335 0.99967973384004
199209082340 0.999679755211963
199209082345 0.999679776579475
199209082350 0.999679797942471
199209082355 0.999679819300966
199209090000 0.999679840655054
199209090005 0.999679862004776
199209090010 0.999679883350122
199209090015 0.999679904691043
199209090020 0.999679926027464
199209090025 0.999679947359434
199209090030 0.999679968687057
199209090035 0.999679990010319
199209090040 0.999680011329134
199209090045 0.999680032643506
199209090050 0.999680053953497
199209090055 0.999680075259075
199209090100 0.99968009656019
199209090105 0.999680117856934
199209090110 0.999680139149359
199209090115 0.999680160437404
199209090120 0.999680181720995
199209090125 0.999680203000171
199209090130 0.999680224274999
199209090135 0.999680245545432
199209090140 0.999680266811455
199209090145 0.999680288073132
199209090150 0.999680309330439
199209090155 0.999680330583336
199209090200 0.999680351831808
199209090205 0.999680373075982
199209090210 0.999680394315918
199209090215 0.999680415551429
199209090220 0.999680436782382
199209090225 0.999680458008932
199209090230 0.999680479231318
199209090235 0.999680500449492
199209090240 0.999680521663171
199209090245 0.999680542872327
199209090250 0.999680564077173
199209090255 0.999680585277759
199209090300 0.999680606473996
199209090305 0.99968062766589
199209090310 0.999680648853462
199209090315 0.999680670036689
199209090320 0.999680691215536
199209090325 0.999680712389977
199209090330 0.999680733560101
199209090335 0.999680754726034
199209090340 0.999680775887693
199209090345 0.999680797044905
199209090350 0.999680818197706
199209090355 0.999680839346237
199209090400 0.999680860490478
199209090405 0.999680881630346
199209090410 0.999680902765889
199209090415 0.999680923897176
199209090420 0.999680945024147
199209090425 0.999680966146806
199209090430 0.999680987265199
199209090435 0.999681008379294
199209090440 0.999681029489042
199209090445 0.999681050594477
199209090450 0.99968107169557
199209090455 0.999681092792337
199209090500 0.999681113884879
199209090505 0.999681134973193
199209090510 0.999681156057197
199209090515 0.999681177136889
199209090520 0.999681198212268
199209090525 0.999681219283316
199209090530 0.999681240350087
199209090535 0.99968126141269
199209090540 0.999681282471038
199209090545 0.999681303525003
199209090550 0.99968132457469
199209090555 0.999681345620181
199209090600 0.999681366661404
199209090605 0.999681387698312
199209090610 0.999681408730922
199209090615 0.999681429759294
199209090620 0.999681450783491
199209090625 0.999681471803459
199209090630 0.999681492819129
199209090635 0.999681513830485
199209090640 0.999681534837539
199209090645 0.999681555840362
199209090650 0.999681576838983
199209090655 0.999681597833396
199209090700 0.999681618823583
199209090705 0.999681639809485
199209090710 0.999681660791111
199209090715 0.999681681768521
199209090720 0.999681702741715
199209090725 0.99968172371069
199209090730 0.999681744675441
199209090735 0.999681765635954
199209090740 0.999681786592224
199209090745 0.999681807544262
199209090750 0.9996818284921
199209090755 0.999681849435769
199209090800 0.999681870375216
199209090805 0.999681891310389
199209090810 0.999681912241311
199209090815 0.999681933168056
199209090820 0.999681954090638
199209090825 0.99968197500904
199209090830 0.999681995923224
199209090835 0.999682016833143
199209090840 0.999682037738836
199209090845 0.999682058640353
199209090850 0.999682079537728
199209090855 0.999682100430939
199209090900 0.999682121319946
199209090905 0.999682142204729
199209090910 0.999682163085323
199209090915 0.99968218396175
199209090920 0.999682204833987
199209090925 0.999682225702033
199209090930 0.999682246565951
199209090935 0.999682267425681
199209090940 0.99968228828114
199209090945 0.999682309132377
199209090950 0.999682329979537
199209090955 0.999682350822671
199209091000 0.99968237166163
199209091005 0.999682392496339
199209091010 0.99968241332689
199209091015 0.999682434153262
199209091020 0.999682454975401
199209091025 0.999682475793387
199209091030 0.999682496607287
199209091035 0.999682517417083
199209091040 0.999682538222744
199209091045 0.999682559024238
199209091050 0.999682579821551
199209091055 0.999682600614733
199209091100 0.999682621403817
199209091105 0.99968264218875
199209091110 0.999682662969508
199209091115 0.999682683746108
199209091120 0.999682704518588
199209091125 0.999682725286987
199209091130 0.999682746051271
199209091135 0.999682766811398
199209091140 0.999682787567386
199209091145 0.999682808319286
199209091150 0.999682829067126
199209091155 0.999682849810795
199209091200 0.99968287055025
199209091205 0.999682891285621
199209091210 0.999682912016953
199209091215 0.999682932744192
199209091220 0.999682953467314
199209091225 0.999682974186328
199209091230 0.999682994901243
199209091235 0.99968301561202
199209091240 0.999683036318678
199209091245 0.999683057021277
199209091250 0.999683077719805
199209091255 0.999683098414244
199209091300 0.999683119104596
199209091305 0.999683139790851
199209091310 0.999683160473027
199209091315 0.999683181151165
199209091320 0.999683201825195
199209091325 0.999683222495046
199209091330 0.999683243160805
199209091335 0.999683263822589
199209091340 0.999683284480364
199209091345 0.999683305134065
199209091350 0.999683325783635
199209091355 0.999683346429068
199209091400 0.999683367070474
199209091405 0.999683387707891
199209091410 0.999683408341242
199209091415 0.999683428970489
199209091420 0.999683449595682
199209091425 0.999683470216826
199209091430 0.999683490833929
199209091435 0.999683511447019
199209091440 0.999683532056097
199209091445 0.999683552661083
199209091450 0.999683573261903
199209091455 0.999683593858702
199209091500 0.999683614451647
199209091505 0.999683635040562
199209091510 0.999683655625276
199209091515 0.999683676205922
199209091520 0.999683696782645
199209091525 0.999683717355397
199209091530 0.999683737924079
199209091535 0.999683758488702
199209091540 0.999683779049334
199209091545 0.999683799605948
199209091550 0.999683820158535
199209091555 0.999683840707099
199209091600 0.999683861251623
199209091605 0.999683881792135
199209091610 0.999683902328682
199209091615 0.999683922861254
199209091620 0.999683943389801
199209091625 0.999683963914307
199209091630 0.9996839844348
199209091635 0.999684004951321
199209091640 0.999684025463866
199209091645 0.999684045972414
199209091650 0.999684066476965
199209091655 0.999684086977531
199209091700 0.999684107474113
199209091705 0.999684127966727
199209091710 0.999684148455346
199209091715 0.999684168939965
199209091720 0.99968418942061
199209091725 0.999684209897281
199209091730 0.999684230369987
199209091735 0.999684250838734
199209091740 0.999684271303483
199209091745 0.999684291764231
199209091750 0.999684312221033
199209091755 0.999684332673936
199209091800 0.999684353122917
199209091805 0.9996843735679
199209091810 0.999684394008864
199209091815 0.999684414445857
199209091820 0.999684434878909
199209091825 0.999684455308034
199209091830 0.999684475733258
199209091835 0.999684496154527
199209091840 0.999684516571808
199209091845 0.999684536985143
199209091850 0.999684557394591
199209091855 0.999684577800105
199209091900 0.999684598201616
199209091905 0.999684618599197
199209091910 0.99968463899292
199209091915 0.999684659382729
199209091920 0.999684679768559
199209091925 0.999684700150443
199209091930 0.999684720528446
199209091935 0.999684740902557
199209091940 0.999684761272708
199209091945 0.99968478163891
199209091950 0.999684802001221
199209091955 0.999684822359653
199209092000 0.999684842714176
199209092005 0.999684863064779
199209092010 0.999684883411467
199209092015 0.999684903754264
199209092020 0.999684924093186
199209092025 0.999684944428229
199209092030 0.999684964759341
199209092035 0.999684985086482
199209092040 0.999685005409724
199209092045 0.999685025729181
199209092050 0.999685046044819
199209092055 0.999685066356469
199209092100 0.999685086664158
199209092105 0.999685106968046
199209092110 0.99968512726813
199209092115 0.999685147564286
199209092120 0.999685167856522
199209092125 0.999685188144913
199209092130 0.999685208429448
199209092135 0.999685228710101
199209092140 0.999685248986893
199209092145 0.999685269259848
199209092150 0.999685289528944
199209092155 0.999685309794168
199209092200 0.999685330055542
199209092205 0.999685350313042
199209092210 0.999685370566637
199209092215 0.999685390816388
199209092220 0.999685411062355
199209092225 0.999685431304512
199209092230 0.999685451542778
199209092235 0.999685471777157
199209092240 0.999685492007769
199209092245 0.999685512234636
199209092250 0.999685532457595
199209092255 0.999685552676584
199209092300 0.999685572891736
199209092305 0.999685593103141
199209092310 0.999685613310753
199209092315 0.999685633514533
199209092320 0.999685653714491
199209092325 0.999685673910648
199209092330 0.999685694102974
199209092335 0.999685714291462
199209092340 0.999685734476179
199209092345 0.999685754657081
199209092350 0.999685774834085
199209092355 0.999685795007279
199209100000 0.99968581517674
