#------------------------------------------------------
# Deltares, D-Flow FM Version 1.1.35.22725:22731M, Oct 11 2012, 12:57:19
# Created on 2012-12-06T16:27:57+0100, D-Flow FM
#------------------------------------------------------
# Location    : Obs02
# Position    : (134,2)
# Source      : model
# Unit        : waterlevel
# Analyse time: most recent
# Timezone    : GMT
#------------------------------------------------------
199208310000 0
199208310005 0
199208310010 0
199208310015 0
199208310020 0
199208310025 0
199208310030 0
199208310035 0
199208310040 0
199208310045 0
199208310050 0
199208310055 0
199208310100 0
199208310105 0
199208310110 0
199208310115 0
199208310120 0
199208310125 0
199208310130 0
199208310135 0
199208310140 0
199208310145 0
199208310150 0
199208310155 0
199208310200 0
199208310205 0
199208310210 0
199208310215 0
199208310220 0
199208310225 0
199208310230 0
199208310235 0
199208310240 0
199208310245 0
199208310250 0
199208310255 0
199208310300 0
199208310305 0
199208310310 0
199208310315 0
199208310320 0
199208310325 0
199208310330 0
199208310335 0
199208310340 0
199208310345 0
199208310350 0
199208310355 0
199208310400 0
199208310405 0
199208310410 0
199208310415 0
199208310420 0
199208310425 0
199208310430 0
199208310435 0
199208310440 0
199208310445 0
199208310450 0
199208310455 0
199208310500 0
199208310505 0
199208310510 0
199208310515 0
199208310520 0
199208310525 0
199208310530 0
199208310535 0
199208310540 0
199208310545 0
199208310550 0
199208310555 0
199208310600 0
199208310605 0
199208310610 0
199208310615 0
199208310620 0
199208310625 0
199208310630 0
199208310635 0
199208310640 0
199208310645 0
199208310650 0
199208310655 0
199208310700 0
199208310705 0
199208310710 0
199208310715 0
199208310720 0
199208310725 0
199208310730 0
199208310735 0
199208310740 0
199208310745 0
199208310750 0
199208310755 0
199208310800 0
199208310805 0
199208310810 0
199208310815 0
199208310820 0
199208310825 0
199208310830 0
199208310835 0
199208310840 0
199208310845 0
199208310850 0
199208310855 0
199208310900 0
199208310905 0
199208310910 0
199208310915 0
199208310920 0
199208310925 0
199208310930 0
199208310935 0
199208310940 0
199208310945 0
199208310950 0
199208310955 0
199208311000 0
199208311005 0
199208311010 0
199208311015 0
199208311020 0
199208311025 0
199208311030 0
199208311035 0
199208311040 0
199208311045 0
199208311050 0
199208311055 0
199208311100 0
199208311105 0
199208311110 0
199208311115 0
199208311120 0
199208311125 0
199208311130 0
199208311135 0
199208311140 0
199208311145 0
199208311150 0
199208311155 0
199208311200 0
199208311205 0
199208311210 0
199208311215 0
199208311220 0
199208311225 0
199208311230 0
199208311235 0
199208311240 0
199208311245 0
199208311250 0
199208311255 0
199208311300 0
199208311305 0
199208311310 0
199208311315 0
199208311320 0
199208311325 0
199208311330 0
199208311335 0
199208311340 0
199208311345 0
199208311350 0
199208311355 0
199208311400 0
199208311405 0
199208311410 0
199208311415 0
199208311420 0
199208311425 0
199208311430 0
199208311435 0
199208311440 0
199208311445 0
199208311450 0
199208311455 0
199208311500 0
199208311505 0
199208311510 0
199208311515 0
199208311520 0
199208311525 0
199208311530 0
199208311535 0
199208311540 0
199208311545 0
199208311550 0
199208311555 0
199208311600 0
199208311605 0
199208311610 0
199208311615 0
199208311620 0
199208311625 0
199208311630 0
199208311635 0
199208311640 0
199208311645 0
199208311650 0
199208311655 0
199208311700 0
199208311705 0
199208311710 0
199208311715 0
199208311720 0
199208311725 0
199208311730 0
199208311735 0
199208311740 0
199208311745 0
199208311750 0
199208311755 0
199208311800 0
199208311805 0
199208311810 0
199208311815 0
199208311820 0
199208311825 0
199208311830 0
199208311835 0
199208311840 0
199208311845 0
199208311850 0
199208311855 0
199208311900 0
199208311905 0
199208311910 0
199208311915 0
199208311920 0
199208311925 0
199208311930 0
199208311935 0
199208311940 0
199208311945 0
199208311950 0
199208311955 0
199208312000 0
199208312005 0
199208312010 0
199208312015 0
199208312020 0
199208312025 0
199208312030 0
199208312035 0
199208312040 0
199208312045 0
199208312050 0
199208312055 0
199208312100 0
199208312105 0
199208312110 0
199208312115 0
199208312120 0
199208312125 0
199208312130 0
199208312135 0
199208312140 0
199208312145 0
199208312150 0
199208312155 0
199208312200 0
199208312205 0
199208312210 0
199208312215 0
199208312220 0
199208312225 0
199208312230 0
199208312235 0
199208312240 0
199208312245 0
199208312250 0
199208312255 0
199208312300 0
199208312305 0
199208312310 0
199208312315 0
199208312320 0
199208312325 0
199208312330 0
199208312335 0
199208312340 0
199208312345 0
199208312350 0
199208312355 0
199209010000 0
199209010005 0
199209010010 0
199209010015 0
199209010020 0
199209010025 0
199209010030 0
199209010035 0
199209010040 0
199209010045 0
199209010050 0
199209010055 0
199209010100 0
199209010105 0
199209010110 0
199209010115 0
199209010120 0
199209010125 0
199209010130 0
199209010135 0
199209010140 0
199209010145 0
199209010150 0
199209010155 0
199209010200 0
199209010205 0
199209010210 0
199209010215 0
199209010220 0
199209010225 0
199209010230 0
199209010235 0
199209010240 0
199209010245 0
199209010250 0
199209010255 0
199209010300 0
199209010305 0
199209010310 0
199209010315 0
199209010320 0
199209010325 0
199209010330 0
199209010335 0
199209010340 0
199209010345 0
199209010350 0
199209010355 0
199209010400 0
199209010405 0
199209010410 0
199209010415 0
199209010420 0
199209010425 0
199209010430 0
199209010435 0
199209010440 0
199209010445 0
199209010450 0
199209010455 0
199209010500 0
199209010505 0
199209010510 0
199209010515 0
199209010520 0
199209010525 0
199209010530 0
199209010535 0
199209010540 0
199209010545 0
199209010550 0
199209010555 0
199209010600 0
199209010605 0
199209010610 0
199209010615 0
199209010620 0
199209010625 0
199209010630 0
199209010635 0
199209010640 0
199209010645 0
199209010650 0
199209010655 0
199209010700 0
199209010705 0
199209010710 0
199209010715 0
199209010720 0
199209010725 0
199209010730 0
199209010735 0
199209010740 0
199209010745 0
199209010750 0
199209010755 0
199209010800 0
199209010805 0
199209010810 0
199209010815 0
199209010820 0
199209010825 0
199209010830 0
199209010835 0
199209010840 0
199209010845 0
199209010850 0
199209010855 0
199209010900 0
199209010905 0
199209010910 0
199209010915 0
199209010920 0
199209010925 0
199209010930 0
199209010935 0
199209010940 0
199209010945 0
199209010950 0
199209010955 0
199209011000 0
199209011005 0
199209011010 0
199209011015 0
199209011020 0
199209011025 0
199209011030 0
199209011035 0
199209011040 0
199209011045 0
199209011050 0
199209011055 0
199209011100 0
199209011105 0
199209011110 0
199209011115 0
199209011120 0
199209011125 0
199209011130 0
199209011135 0
199209011140 0
199209011145 0
199209011150 0
199209011155 0
199209011200 0
199209011205 0
199209011210 0
199209011215 0
199209011220 0
199209011225 0
199209011230 0
199209011235 0
199209011240 0
199209011245 0
199209011250 0
199209011255 0
199209011300 0
199209011305 0
199209011310 0
199209011315 0
199209011320 0
199209011325 0
199209011330 0
199209011335 0
199209011340 0
199209011345 0
199209011350 0
199209011355 0
199209011400 0
199209011405 0
199209011410 0
199209011415 0
199209011420 0
199209011425 0
199209011430 0
199209011435 0
199209011440 0
199209011445 0
199209011450 0
199209011455 0
199209011500 0
199209011505 0
199209011510 0
199209011515 0
199209011520 0
199209011525 0
199209011530 0
199209011535 0
199209011540 0
199209011545 0
199209011550 0
199209011555 0
199209011600 0
199209011605 0
199209011610 0
199209011615 0
199209011620 0
199209011625 0
199209011630 0
199209011635 0
199209011640 0
199209011645 0
199209011650 0
199209011655 0
199209011700 0
199209011705 0
199209011710 0
199209011715 0
199209011720 0
199209011725 0
199209011730 0
199209011735 0
199209011740 0
199209011745 0
199209011750 0
199209011755 0
199209011800 0
199209011805 0
199209011810 0
199209011815 0
199209011820 0
199209011825 0
199209011830 0
199209011835 0
199209011840 0
199209011845 0
199209011850 0
199209011855 0
199209011900 0
199209011905 0
199209011910 0
199209011915 0
199209011920 0
199209011925 0
199209011930 0
199209011935 0
199209011940 0
199209011945 0
199209011950 0
199209011955 0
199209012000 0
199209012005 0
199209012010 0
199209012015 0
199209012020 0
199209012025 0
199209012030 0
199209012035 0
199209012040 0
199209012045 0
199209012050 0
199209012055 0
199209012100 0
199209012105 0
199209012110 0
199209012115 0
199209012120 0
199209012125 0
199209012130 0
199209012135 0
199209012140 0
199209012145 0
199209012150 0
199209012155 0
199209012200 0
199209012205 0
199209012210 0
199209012215 0
199209012220 0
199209012225 0
199209012230 0
199209012235 0
199209012240 0
199209012245 0
199209012250 0
199209012255 0
199209012300 0
199209012305 0
199209012310 0
199209012315 0
199209012320 0
199209012325 0
199209012330 0
199209012335 0
199209012340 0
199209012345 0
199209012350 0
199209012355 0
199209020000 0
199209020005 0
199209020010 0
199209020015 0
199209020020 0
199209020025 0
199209020030 0
199209020035 0
199209020040 0
199209020045 0
199209020050 0
199209020055 0
199209020100 0
199209020105 0
199209020110 0
199209020115 0
199209020120 0
199209020125 0
199209020130 0
199209020135 0
199209020140 0
199209020145 0
199209020150 0
199209020155 0
199209020200 0
199209020205 0
199209020210 0
199209020215 0
199209020220 0
199209020225 0
199209020230 0
199209020235 0
199209020240 0
199209020245 0
199209020250 0
199209020255 0
199209020300 0
199209020305 0
199209020310 0
199209020315 0
199209020320 0
199209020325 0
199209020330 0
199209020335 0
199209020340 0
199209020345 0
199209020350 0
199209020355 0
199209020400 0
199209020405 0
199209020410 0
199209020415 0
199209020420 0
199209020425 0
199209020430 0
199209020435 0
199209020440 0
199209020445 0
199209020450 0
199209020455 0
199209020500 0
199209020505 0
199209020510 0
199209020515 0
199209020520 0
199209020525 0
199209020530 0
199209020535 0
199209020540 0
199209020545 0
199209020550 0
199209020555 0
199209020600 0
199209020605 0
199209020610 0
199209020615 0
199209020620 0
199209020625 0
199209020630 0
199209020635 0
199209020640 0
199209020645 0
199209020650 0
199209020655 0
199209020700 0
199209020705 0
199209020710 0
199209020715 0
199209020720 0
199209020725 0
199209020730 0
199209020735 0
199209020740 0
199209020745 0
199209020750 0
199209020755 0
199209020800 0
199209020805 0
199209020810 0
199209020815 0
199209020820 0
199209020825 0
199209020830 0
199209020835 0
199209020840 0
199209020845 0
199209020850 0
199209020855 0
199209020900 0
199209020905 0
199209020910 0
199209020915 0
199209020920 0
199209020925 0
199209020930 0
199209020935 0
199209020940 0
199209020945 0
199209020950 0
199209020955 0
199209021000 0
199209021005 0
199209021010 0
199209021015 0
199209021020 0
199209021025 0
199209021030 0
199209021035 0
199209021040 0
199209021045 0
199209021050 0
199209021055 0
199209021100 0
199209021105 0
199209021110 0
199209021115 0
199209021120 0
199209021125 1.53455683643024e-22
199209021130 3.87170091053158e-19
199209021135 -1.15279033948742e-17
199209021140 4.97512608820743e-16
199209021145 4.86056539233118e-15
199209021150 3.58052612746302e-14
199209021155 1.93099495740593e-13
199209021200 8.19126870853075e-13
199209021205 2.89052585222096e-12
199209021210 8.83693785716829e-12
199209021215 2.44463775372612e-11
199209021220 6.70070850135634e-11
199209021225 1.9282057721522e-10
199209021230 5.55379425303218e-10
199209021235 1.49344761315905e-09
199209021240 3.63813096180321e-09
199209021245 8.01757926947157e-09
199209021250 1.61223132993065e-08
199209021255 2.98882657663474e-08
199209021300 5.15662990968991e-08
199209021305 8.34689865555932e-08
199209021310 1.27621804032787e-07
199209021315 1.85390464776718e-07
199209021320 2.57180837799272e-07
199209021325 3.42302409178149e-07
199209021330 4.39051207899231e-07
199209021335 5.45009439229815e-07
199209021340 6.57492410966357e-07
199209021345 7.74030631966098e-07
199209021350 8.92775191851463e-07
199209021355 1.01274822803858e-06
199209021400 1.13390914098567e-06
199209021405 1.25705497734515e-06
199209021410 1.38360546897342e-06
199209021415 1.51533385010164e-06
199209021420 1.65409964362083e-06
199209021425 1.80162620109566e-06
199209021430 1.959347787425e-06
199209021435 2.12833295664677e-06
199209021440 2.30927701056912e-06
199209021445 2.50254716225489e-06
199209021450 2.70825943867656e-06
199209021455 2.9263666780926e-06
199209021500 3.15674122734371e-06
199209021505 3.39924180192357e-06
199209021510 3.65375977106003e-06
199209021515 3.92024500513749e-06
199209021520 4.1987146748587e-06
199209021525 4.48924985796991e-06
199209021530 4.79198493485714e-06
199209021535 5.10709403886522e-06
199209021540 5.43477765182926e-06
199209021545 5.77525117093663e-06
199209021550 6.12873622113823e-06
199209021555 6.49545474171036e-06
199209021600 6.87562543581788e-06
199209021605 7.26946201975862e-06
199209021610 7.67717273643549e-06
199209021615 8.09896060018867e-06
199209021620 8.53502388196731e-06
199209021625 8.98555658527758e-06
199209021630 9.4507488773914e-06
199209021635 9.93078749013935e-06
199209021640 1.04258560795298e-05
199209021645 1.0936135529324e-05
199209021650 1.14618041938495e-05
199209021655 1.20030380961419e-05
199209021700 1.25600110898304e-05
199209021705 1.31328949950715e-05
199209021710 1.37218597106358e-05
199209021715 1.43270733020433e-05
199209021720 1.49487020705461e-05
199209021725 1.55869106027837e-05
199209021730 1.62418618017496e-05
199209021735 1.69137168950026e-05
199209021740 1.76026354169616e-05
199209021745 1.83087751534306e-05
199209021750 1.90322920601697e-05
199209021755 1.97733402432062e-05
199209021800 2.05320729566847e-05
199209021805 2.13086516786739e-05
199209021810 2.2103195673687e-05
199209021815 2.29157775364328e-05
199209021820 2.37464123553491e-05
199209021825 2.45951044135882e-05
199209021830 2.54618480361668e-05
199209021835 2.63466505346829e-05
199209021840 2.72494877205232e-05
199209021845 2.8170397669501e-05
199209021850 2.91094113537955e-05
199209021855 3.00665810773508e-05
199209021900 3.10419996304404e-05
199209021905 3.20356997764658e-05
199209021910 3.30478000757902e-05
199209021915 3.40783982913428e-05
199209021920 3.51275948603348e-05
199209021925 3.61955082784415e-05
199209021930 3.72822463013549e-05
199209021935 3.83879701578831e-05
199209021940 3.9512807390732e-05
199209021945 4.0656888521516e-05
199209021950 4.18203215511453e-05
199209021955 4.30032543074185e-05
199209022000 4.4205693832883e-05
199209022005 4.54280147397543e-05
199209022010 4.66701781236478e-05
199209022015 4.79323728000374e-05
199209022020 4.92140604557686e-05
199209022025 5.0516987678812e-05
199209022030 5.18405314903884e-05
199209022035 5.31845542840531e-05
199209022040 5.45490864566272e-05
199209022045 5.59349273826369e-05
199209022050 5.73418787695755e-05
199209022055 5.87701167070052e-05
199209022100 6.02194355941331e-05
199209022105 6.16898856914078e-05
199209022110 6.31816815167371e-05
199209022115 6.46948693144117e-05
199209022120 6.62293726425813e-05
199209022125 6.77852343091806e-05
199209022130 6.9362734037785e-05
199209022135 7.09620439609065e-05
199209022140 7.25831247078538e-05
199209022145 7.42261635857441e-05
199209022150 7.58916197090579e-05
199209022155 7.75796653674469e-05
199209022200 7.92896957359341e-05
199209022205 8.10222719739745e-05
199209022210 8.27781212514992e-05
199209022215 8.45575014566677e-05
199209022220 8.63605937587061e-05
199209022225 8.81876121175451e-05
199209022230 9.00387472513863e-05
199209022235 9.19141705418403e-05
199209022240 9.38140478539077e-05
199209022245 9.57385448512924e-05
199209022250 9.76878293651065e-05
199209022255 9.96620696456611e-05
199209022300 0.000101661433292179
199209022305 0.000103686084728921
199209022310 0.000105736183652995
199209022315 0.00010781188463048
199209022320 0.000109913325580531
199209022325 0.000112040641408065
199209022330 0.00011419396874215
199209022335 0.000116373436199554
199209022340 0.000118579163191322
199209022345 0.000120811261633823
199209022350 0.000123069836318619
199209022355 0.000125354986023045
199209030000 0.000127666803436282
199209030005 0.000130005376103596
199209030010 0.000132370786218655
199209030015 0.000134763111415147
199209030020 0.000137182424505565
199209030025 0.000139628794010491
199209030030 0.000142102283793342
199209030035 0.0001446029531398
199209030040 0.00014713085613624
199209030045 0.000149686040834693
199209030050 0.000152268547875598
199209030055 0.000154878407547953
199209030100 0.000157515636357346
199209030105 0.000160180229422265
199209030110 0.000162872154036351
199209030115 0.000165591340730979
199209030120 0.000168337697113701
199209030125 0.000171111140914575
199209030130 0.000173911701860672
199209030135 0.000176740905824615
199209030140 0.000179600223947521
199209030145 0.00018248838613219
199209030150 0.000185404765146432
199209030155 0.000188349267131135
199209030200 0.000191321892806138
199209030205 0.000194322783331073
199209030210 0.00019735192859178
199209030215 0.000200409288761581
199209030220 0.000203495124297309
199209030225 0.000206609235221943
199209030230 0.000209751948711032
199209030235 0.000212923127281366
199209030240 0.000216122508974848
199209030245 0.00021935087866254
199209030250 0.000222608046338242
199209030255 0.000225893744698037
199209030300 0.000229208269665092
199209030305 0.000232550660978183
199209030310 0.000235923167313106
199209030315 0.000239324555048153
199209030320 0.000242754860910414
199209030325 0.000246214535552134
199209030330 0.00024970313561485
199209030335 0.000253221084696771
199209030340 0.000256768306427918
199209030345 0.000260344967895244
199209030350 0.000263951077574988
199209030355 0.00026758671028017
199209030400 0.000271251951944187
199209030405 0.00027494679414098
199209030410 0.000278671297292294
199209030415 0.000282425571709487
199209030420 0.000286209625717477
199209030425 0.000290023487111653
199209030430 0.000293867213541403
199209030435 0.000297740915666304
199209030440 0.000301644637363569
199209030445 0.000305578433098062
199209030450 0.000309542355860956
199209030455 0.000313536443863438
199209030500 0.000317560817912094
199209030505 0.000321615538738396
199209030510 0.000325700667734906
199209030515 0.000329816262280591
199209030520 0.000333962365424951
199209030525 0.000338139077790601
199209030530 0.00034234649997952
199209030535 0.00034658469521931
199209030540 0.000350853710108524
199209030545 0.00035515357065705
199209030550 0.000359484442477005
199209030555 0.000363846372909688
199209030600 0.000368239427859849
199209030605 0.000372663666581705
199209030610 0.000377119159641387
199209030615 0.000381605955966513
199209030620 0.000386124045902854
199209030625 0.000390673759404461
199209030630 0.000395255069271491
199209030635 0.000399868003649942
199209030640 0.000404512627477104
199209030645 0.000409188925097253
199209030650 0.000413897168231968
199209030655 0.000418637343625036
199209030700 0.000423409521455654
199209030705 0.000428213759588456
199209030710 0.000433050125278546
199209030715 0.000437918693367662
199209030720 0.000442819528061987
199209030725 0.000447752595410321
199209030730 0.00045271817531067
199209030735 0.000457716274284718
199209030740 0.000462746980772075
199209030745 0.000467810326099128
199209030750 0.000472906377189369
199209030755 0.000478035191531126
199209030800 0.000483196788945732
199209030805 0.000488391327343595
199209030810 0.000493618863418183
199209030815 0.000498879512931499
199209030820 0.000504173281278546
199209030825 0.000509500240748972
199209030830 0.000514860465801463
199209030835 0.000520254026429216
199209030840 0.000525680967397769
199209030845 0.000531141146619291
199209030850 0.000536635187037268
199209030855 0.00054216282779369
199209030900 0.000547724167430588
199209030905 0.00055331925581041
199209030910 0.000558948164343408
199209030915 0.000564610964051498
199209030920 0.000570307721921242
199209030925 0.0005760384924312
199209030930 0.000581803293395713
199209030935 0.000587602215154718
199209030940 0.000593435444488375
199209030945 0.000599303013009736
199209030950 0.000605204973035573
199209030955 0.000611141345780317
199209031000 0.000617112210097492
199209031005 0.000623117642328226
199209031010 0.000629157719470638
199209031015 0.000635232517980481
199209031020 0.000641342108661042
199209031025 0.000647486541605248
199209031030 0.000653665708323487
199209031035 0.000659879972023331
199209031040 0.000666129264814793
199209031045 0.000672413885235077
199209031050 0.000678733709442985
199209031055 0.000685088784059743
199209031100 0.000691479184396448
199209031105 0.000697904982973837
199209031110 0.000704366252380747
199209031115 0.000710863064794832
199209031120 0.000717395488175932
199209031125 0.000723963581193597
199209031130 0.000730567378599116
199209031135 0.000737206913744597
199209031140 0.00074388244067551
199209031145 0.000750593835446162
199209031150 0.000757341357539227
199209031155 0.000764124957144527
199209031200 0.000770944680040215
199209031205 0.000777800601643235
199209031210 0.000784692793672572
199209031215 0.000791621328860558
199209031220 0.000798586280586537
199209031225 0.000805587722433326
199209031230 0.000812625726298014
199209031235 0.000819700362032448
199209031240 0.000826811693146006
199209031245 0.000833959776576775
199209031250 0.000841144668501917
199209031255 0.000848366479297165
199209031300 0.000855625286241009
199209031305 0.000862921118457768
199209031310 0.000870254085165448
199209031315 0.000877624216295775
199209031320 0.000885031569168196
199209031325 0.000892476213138075
199209031330 0.000899958217532291
199209031335 0.000907477652543768
199209031340 0.000915034588859832
199209031345 0.000922629097815597
199209031350 0.000930261250263573
199209031355 0.000937931117296472
199209031400 0.000945638768720791
199209031405 0.000953384274513361
199209031410 0.000961167703029908
199209031415 0.000968989123632795
199209031420 0.000976848604911119
199209031425 0.000984746216625641
199209031430 0.000992682026750559
199209031435 0.00100065610202368
199209031440 0.0010086685090388
199209031445 0.00101671931351603
199209031450 0.00102480858146874
199209031455 0.00103293637884971
199209031500 0.0010411027725856
199209031505 0.00104930783014084
199209031510 0.00105755161954506
199209031515 0.0010658342092637
199209031520 0.00107415566799512
199209031525 0.00108251606479899
199209031530 0.00109091546873001
199209031535 0.00109935394913488
199209031540 0.00110783157520171
199209031545 0.00111634841635286
199209031550 0.00112490454176628
199209031555 0.00113350002079943
199209031600 0.00114213492253682
199209031605 0.00115080931618794
199209031610 0.00115952327070581
199209031615 0.0011682768551111
199209031620 0.00117707013821556
199209031625 0.00118590318884124
199209031630 0.00119477607566574
199209031635 0.00120368886732148
199209031640 0.00121264163236347
199209031645 0.00122163443925229
199209031650 0.00123066735643069
199209031655 0.00123974045220361
199209031700 0.00124885379490597
199209031705 0.00125800745269857
199209031710 0.00126720149380676
199209031715 0.00127643598625332
199209031720 0.00128571099814619
199209031725 0.001295026597373
199209031730 0.00130438285191354
199209031735 0.00131377982952104
199209031740 0.00132321759803809
199209031745 0.0013326962250845
199209031750 0.00134221577835759
199209031755 0.00135177632534727
199209031800 0.00136137793360283
199209031805 0.00137102067048841
199209031810 0.00138070460340783
199209031815 0.0013904297996068
199209031820 0.00140019632635011
199209031825 0.00141000425077371
199209031830 0.00141985364001507
199209031835 0.00142974456110923
199209031840 0.00143967708108048
199209031845 0.00144965126687378
199209031850 0.00145966718541592
199209031855 0.00146972490357222
199209031900 0.00147982448818695
199209031905 0.00148996600605789
199209031910 0.00150014952396137
199209031915 0.00151037510863884
199209031920 0.00152064282681193
199209031925 0.00153095274517653
199209031930 0.00154130493041186
199209031935 0.00155169944917849
199209031940 0.00156213636812387
199209031945 0.00157261575388243
199209031950 0.00158313767307902
199209031955 0.00159370219233031
199209032000 0.00160430937824711
199209032005 0.00161495929743538
199209032010 0.0016256520164982
199209032015 0.00163638760203734
199209032020 0.00164716612065394
199209032025 0.00165798763895104
199209032030 0.00166885222353261
199209032035 0.00167975994100673
199209032040 0.00169071085798458
199209032045 0.00170170504108197
199209032050 0.00171274255692036
199209032055 0.00172382347212649
199209032100 0.00173494785333321
199209032105 0.00174611576717986
199209032110 0.00175732728031305
199209032115 0.00176858245938485
199209032120 0.00177988137105545
199209032125 0.00179122408199138
199209032130 0.00180261065886594
199209032135 0.00181404116835905
199209032140 0.00182551567715678
199209032145 0.00183703425195129
199209032150 0.00184859695944065
199209032155 0.00186020386632764
199209032200 0.0018718550393196
199209032205 0.00188355054512846
199209032210 0.00189529045046888
199209032215 0.00190707482205868
199209032220 0.00191890372661787
199209032225 0.00193077723086658
199209032230 0.00194269540152637
199209032235 0.00195465830531736
199209032240 0.00196666600895831
199209032245 0.00197871857916599
199209032250 0.00199081608265273
199209032255 0.00200295858612633
199209032300 0.00201514615628904
199209032305 0.00202737885983577
199209032310 0.00203965676345339
199209032315 0.00205197993381912
199209032320 0.00206434843759955
199209032325 0.00207676234144891
199209032330 0.00208922171200818
199209032335 0.00210172661590368
199209032340 0.0021142771197448
199209032345 0.00212687329012378
199209032350 0.00213951519361338
199209032355 0.00215220289676554
199209040000 0.00216493646611054
199209040005 0.00217771596815376
199209040010 0.00219054146937579
199209040015 0.00220341303623012
199209040020 0.00221633073514118
199209040025 0.00222929463250345
199209040030 0.00224230479467896
199209040035 0.00225536128799596
199209040040 0.00226846417874723
199209040045 0.00228161353318827
199209040050 0.00229480941753529
199209040055 0.00230805189796378
199209040100 0.00232134104060623
199209040105 0.0023346769115508
199209040110 0.00234805957683918
199209040115 0.00236148910246467
199209040120 0.00237496555437037
199209040125 0.00238848899844715
199209040130 0.002402059500532
199209040135 0.0024156771264062
199209040140 0.00242934194179257
199209040145 0.00244305401235306
199209040150 0.00245681340369138
199209040155 0.00247062018134319
199209040200 0.00248447441077733
199209040205 0.00249837615740462
199209040210 0.00251232548655272
199209040215 0.00252632246347475
199209040220 0.00254036715338712
199209040225 0.00255445962137197
199209040230 0.00256859993243765
199209040235 0.00258278815165618
199209040240 0.00259702434374602
199209040245 0.00261130857342686
199209040250 0.00262564090587454
199209040255 0.00264002140498594
199209040300 0.00265445013491717
199209040305 0.00266892716093482
199209040310 0.0026834525461023
199209040315 0.00269802635043401
199209040320 0.00271264859161488
199209040325 0.0027273193599948
199209040330 0.00274203879821165
199209040335 0.00275680475975126
199209040340 0.00277162284180891
199209040345 0.00278648774499598
199209040350 0.00280140375808818
199209040355 0.00281636633654307
199209040400 0.00283137905907903
199209040405 0.00284643802832936
199209040410 0.00286154158837917
199209040415 0.00287669272135229
199209040420 0.00289189145220974
199209040425 0.00290713960423447
199209040430 0.00292243246484832
199209040435 0.00293777403329712
199209040440 0.00295316077016569
199209040445 0.00296859665563014
199209040450 0.00298408049710828
199209040455 0.00299960971656453
199209040500 0.00301518799110991
199209040505 0.00303081059815103
199209040510 0.00304648203757851
199209040515 0.0030622031416105
199209040520 0.00307797192034005
199209040525 0.00309379055447819
199209040530 0.00310965635412248
199209040535 0.00312556997206563
199209040540 0.00314152907959092
199209040545 0.00315753836721898
199209040550 0.00317359500327263
199209040555 0.00318970034526713
199209040600 0.00320585349573488
199209040605 0.00322205479418155
199209040610 0.0032382985215721
199209040615 0.0032545976501042
199209040620 0.00327093591603134
199209040625 0.0032873307236462
199209040630 0.00330376033195765
199209040635 0.00332025705334386
199209040640 0.00333677637835947
199209040645 0.00335337706756927
199209040650 0.00336997060071542
199209040655 0.00338668597378269
199209040700 0.00340333485125446
199209040705 0.00342018170434994
199209040710 0.00343681943158038
199209040715 0.00345379278044705
199209040720 0.00347027364315907
199209040725 0.00348731049113558
199209040730 0.00350376964375157
199209040735 0.00352105188846706
199209040740 0.00353785869300272
199209040745 0.00355533544007394
199209040750 0.00357223083236797
199209040755 0.00358977027446155
199209040800 0.00360672745911269
199209040805 0.00362436675061121
199209040810 0.00364141905243632
199209040815 0.00365916341551514
199209040820 0.0036763108145249
199209040825 0.00369415500304917
199209040830 0.00371139114033457
199209040835 0.00372933335417779
199209040840 0.00374666595910756
199209040845 0.0037647106911978
199209040850 0.00378213128112642
199209040855 0.00380027398127581
199209040900 0.00381779149069853
199209040905 0.00383603402145675
199209040910 0.00385364095089466
199209040915 0.00387198256344441
199209040920 0.00388968351731446
199209040925 0.00390812732196744
199209040930 0.00392592039575038
199209040935 0.00394446423388839
199209040940 0.00396234995350704
199209040945 0.00398099397839052
199209040950 0.00399897147996537
199209040955 0.00401771685217537
199209041000 0.00403578809812177
199209041005 0.00405463407890305
199209041010 0.00407279856582567
199209041015 0.00409174599676926
199209041020 0.00411000702996658
199209041025 0.0041290569600825
199209041030 0.00414741049238334
199209041035 0.00416656309274518
199209041040 0.00418501301763399
199209041045 0.00420426687846877
199209041050 0.00422281111014178
199209041055 0.00424216348524361
199209041100 0.00426080072252045
199209041105 0.00428025514587283
199209041110 0.00429898771840956
199209041115 0.00431854169300468
199209041120 0.00433737193473463
199209041125 0.00435702996167909
199209041130 0.00437595298368385
199209041135 0.00439571638986452
199209041140 0.00441473716469448
199209041145 0.00443459878486584
199209041150 0.00445371531870802
199209041155 0.00447368113500153
199209041200 0.00449289022648879
199209041205 0.00451295856129724
199209041210 0.00453226305410756
199209041215 0.00455243135090211
199209041220 0.00457183381922637
199209041225 0.00459210191955892
199209041230 0.00461159406685709
199209041235 0.00463196666763139
199209041240 0.00465155623138349
199209041245 0.00467202880314983
199209041250 0.00469171463201729
199209041255 0.00471229080607918
199209041300 0.00473207585405186
199209041305 0.00475275178824814
199209041310 0.00477263078210855
199209041315 0.00479341370458705
199209041320 0.00481338931294862
199209041325 0.0048342775538222
199209041330 0.00485435693120692
199209041335 0.00487533230322465
199209041340 0.00489551950237468
199209041345 0.00491659881383005
199209041350 0.00493688235703788
199209041355 0.00495808206771292
199209041400 0.00497845325225119
199209041405 0.0049997342612295
199209041410 0.00502021218891325
199209041415 0.00504160673867987
199209041420 0.00506217424289985
199209041425 0.00508368920822902
199209041430 0.00510435066256885
199209041435 0.0051259194039713
199209041440 0.00514670531360033
199209041445 0.005168434719684
199209041450 0.00518930487993421
199209041455 0.00521111974287935
199209041500 0.00523205821015616
199209041505 0.00525389156223545
199209041510 0.00527507096026513
199209041515 0.00529707013866716
199209041520 0.00531821092837179
199209041525 0.00534029130934325
199209041530 0.00536159384843538
199209041535 0.00538385007049021
199209041540 0.00540517557063233
199209041545 0.00542749507475762
199209041550 0.00544895954769997
199209041555 0.00547143863927999
199209041600 0.00549295843760289
199209041605 0.00551544613093948
199209041610 0.00553715574005852
199209041615 0.00555984820795793
199209041620 0.00558162275618464
199209041625 0.00560437843591801
199209041630 0.00562619149830388
199209041635 0.00564895763555301
199209041640 0.00567100142926458
199209041645 0.00569399547489845
199209041650 0.00571603816100304
199209041655 0.00573894479369299
199209041700 0.00576126591650639
199209041705 0.00578457080405613
199209041710 0.00580678524404598
199209041715 0.00583004733443361
199209041720 0.0058523328729915
199209041725 0.00587549787512189
199209041730 0.00589828139317573
199209041735 0.0059216293478923
199209041740 0.00594420606792495
199209041745 0.00596760006257427
199209041750 0.00599058622051628
199209041755 0.00601422438911473
199209041800 0.00603693745494915
199209041805 0.00606057999486306
199209041810 0.00608364362868022
199209041815 0.0061076040457261
199209041820 0.00613051842174607
199209041825 0.00615448167176248
199209041830 0.00617756925230103
199209041835 0.00620152275977458
199209041840 0.00622492050765639
199209041845 0.00624934784792545
199209041850 0.00627255792495269
199209041855 0.00629686717599592
199209041900 0.00632010003691826
199209041905 0.00634439566340858
199209041910 0.00636805306474912
199209041915 0.00639250461697285
199209041920 0.00641610314541354
199209041925 0.00644048771634564
199209041930 0.00646460541851512
199209041935 0.00648935274949717
199209041940 0.00651303575813486
199209041945 0.00653778376542723
199209041950 0.00656173218051544
199209041955 0.00658657749240319
199209042000 0.00661071090414939
199209042005 0.00663590742200906
199209042010 0.0066598642290935
199209042015 0.00668517414963025
199209042020 0.00670927059280899
199209042025 0.00673442063540248
199209042030 0.00675880775460399
199209042035 0.00678417711834926
199209042040 0.0068085808495073
199209042045 0.00683424594707944
199209042050 0.00685860544961926
199209042055 0.00688433171038769
199209042100 0.00690887449445686
199209042105 0.00693425388506875
199209042110 0.00695928022698966
199209042115 0.006985081188178
199209042120 0.00700984367116605
199209042125 0.00703595294390904
199209042130 0.0070606923569918
199209042135 0.00708659130376667
199209042140 0.00711182002880931
199209042145 0.00713773218781579
199209042150 0.00716297455539964
199209042155 0.00718909868964979
199209042200 0.00721446563140855
199209042205 0.00724094416341486
199209042210 0.00726627716550569
199209042215 0.00729270767834736
199209042220 0.00731816837336328
199209042225 0.00734470775910183
199209042230 0.00737026986624532
199209042235 0.00739686868994477
199209042240 0.00742246791578433
199209042245 0.00744922685694315
199209042250 0.00747496083726281
199209042255 0.00750194121197771
199209042300 0.00752769390970358
199209042305 0.00755498338419934
199209042310 0.00758084118776335
199209042315 0.00760779373439201
199209042320 0.00763376251230213
199209042325 0.0076613011195193
199209042330 0.0076873616358891
199209042335 0.00771451519606395
199209042340 0.00774069936095768
199209042345 0.00776823569561313
199209042350 0.00779451572315143
199209042355 0.00782224530676398
199209050000 0.00784876462758003
199209050005 0.00787645634908332
199209050010 0.00790272908849955
199209050015 0.00793079434170646
199209050020 0.0079573417820813
199209050025 0.00798468336792094
199209050030 0.00801187655408723
199209050035 0.00803976533865556
199209050040 0.00806660398323525
199209050045 0.00809444917471627
199209050050 0.00812176378475645
199209050055 0.00815020966349187
199209050100 0.00817699405766943
199209050105 0.00820520199429998
199209050110 0.00823259529563265
199209050115 0.00826120585392686
199209050120 0.00828824156786671
199209050125 0.00831599345149519
199209050130 0.00834457344823177
199209050135 0.00837264967824853
199209050140 0.00840016040949192
199209050145 0.00842812997922508
199209050150 0.00845706185544292
199209050155 0.008485023657682
199209050200 0.00851314265284822
199209050205 0.0085420488114078
199209050210 0.00856981989260194
199209050215 0.00859860950616709
199209050220 0.00862674820600839
199209050225 0.00865599385514861
199209050230 0.00868381504872736
199209050235 0.0087138555838926
199209050240 0.00874199199875345
199209050245 0.00877126370852722
199209050250 0.00879890245602193
199209050255 0.00882910258666312
199209050300 0.00885745072828659
199209050305 0.00888690473998662
199209050310 0.0089150983131376
199209050315 0.00894476986906919
199209050320 0.00897312508173733
199209050325 0.00900207050444065
199209050330 0.00903146271466954
199209050335 0.00906200472121769
199209050340 0.00909072019508309
199209050345 0.00912066979289692
199209050350 0.0091489487875711
199209050355 0.00917836381559733
199209050400 0.00920809247555241
199209050405 0.00923945456737716
199209050410 0.0092674903194157
199209050415 0.00929794121564535
199209050420 0.00932664604643882
199209050425 0.00935808962408569
199209050430 0.00938723293642107
199209050435 0.00941769855257275
199209050440 0.00944640935102658
199209050445 0.0094765760645573
199209050450 0.00950671589017125
199209050455 0.00953814046696059
199209050500 0.00956765792855265
199209050505 0.00959844357634927
199209050510 0.00962747798160529
199209050515 0.009658818670767
199209050520 0.00968870316962423
199209050525 0.00971980032008127
199209050530 0.00974950066344547
199209050535 0.00978089008196277
199209050540 0.00981033313191359
199209050545 0.00984181032447808
199209050550 0.00987176059296614
199209050555 0.00990249566779587
199209050600 0.00993336990666966
199209050605 0.00996498281295667
199209050610 0.0099954036396767
199209050615 0.0100270853363614
199209050620 0.0100577350236822
199209050625 0.0100894922324768
199209050630 0.0101195746272812
199209050635 0.0101505510863362
199209050640 0.0101819643743676
199209050645 0.0102134561049528
199209050650 0.0102444226729266
199209050655 0.0102762357390191
199209050700 0.0103072274243001
199209050705 0.0103384723488923
199209050710 0.0103707744103503
199209050715 0.0104041038875793
199209050720 0.0104347430929659
199209050725 0.0104669508287456
199209050730 0.0104972471181304
199209050735 0.0105297962840995
199209050740 0.010561103230085
199209050745 0.0105938563960435
199209050750 0.0106250189295549
199209050755 0.0106566874649813
199209050800 0.0106891501241444
199209050805 0.0107220507602003
199209050810 0.0107533098501689
199209050815 0.010786633574699
199209050820 0.0108185787986957
199209050825 0.0108516561596263
199209050830 0.0108831414395988
199209050835 0.0109165752296894
199209050840 0.0109485074399983
199209050845 0.010981695509877
199209050850 0.0110134106126034
199209050855 0.0110470301722143
199209050900 0.0110782979986371
199209050905 0.0111104313328009
199209050910 0.0111441407754359
199209050915 0.0111791573359281
199209050920 0.0112107079617618
199209050925 0.0112442213136991
199209050930 0.0112756499519858
199209050935 0.0113100699123671
199209050940 0.0113419015776586
199209050945 0.011375319769528
199209050950 0.0114087592098986
199209050955 0.0114417711832968
199209051000 0.0114752232400821
199209051005 0.0115097842726285
199209051010 0.0115419121310866
199209051015 0.0115745207802712
199209051020 0.0116103403879812
199209051025 0.0116416533872589
199209051030 0.011677486589666
199209051035 0.0117095360646925
199209051040 0.0117439840754665
199209051045 0.0117804576979703
199209051050 0.0118115163182054
199209051055 0.0118481031834558
199209051100 0.0118798200127968
199209051105 0.0119142042839528
199209051110 0.0119473881542224
199209051115 0.0119824326340163
199209051120 0.0120155483710697
199209051125 0.0120506817415237
199209051130 0.0120842100985161
199209051135 0.0121200102545382
199209051140 0.0121541115453909
199209051145 0.0121892809900016
199209051150 0.0122219141858365
199209051155 0.0122576500668291
199209051200 0.0122911772454978
199209051205 0.0123250641339321
199209051210 0.0123615959125143
199209051215 0.0123967188910018
199209051220 0.0124300736295278
199209051225 0.0124641888517257
199209051230 0.0124999542849943
199209051235 0.0125377287599755
199209051240 0.0125707956057542
199209051245 0.0126051529335003
199209051250 0.0126399966324026
199209051255 0.0126753312799424
199209051300 0.0127106645445511
199209051305 0.0127473581552631
199209051310 0.0127812354481693
199209051315 0.0128177557227748
199209051320 0.0128522978205034
199209051325 0.0128864551178691
199209051330 0.0129234809961816
199209051335 0.0129615518433638
199209051340 0.0129959620998712
199209051345 0.0130321408856627
199209051350 0.013065758796129
199209051355 0.0131021389253108
199209051400 0.0131379547978086
199209051405 0.013174995779644
199209051410 0.0132092820236604
199209051415 0.013246174946926
199209051420 0.0132818427404216
199209051425 0.0133193758115296
199209051430 0.0133543641356618
199209051435 0.0133896816988886
199209051440 0.0134265302428134
199209051445 0.0134641558840406
199209051450 0.0134992676283902
199209051455 0.013535644766027
199209051500 0.0135721003645379
199209051505 0.0136101866208702
199209051510 0.0136464761780981
199209051515 0.0136838486925057
199209051520 0.013718765281661
199209051525 0.0137548748205688
199209051530 0.0137926066292903
199209051535 0.0138328643301944
199209051540 0.0138664318408652
199209051545 0.013903053920878
199209051550 0.01394008909949
199209051555 0.0139788078914802
199209051600 0.0140150829296768
199209051605 0.0140531152466759
199209051610 0.0140893698552769
199209051615 0.0141268975929841
199209051620 0.0141628404830106
199209051625 0.0142032860006525
199209051630 0.0142400671887876
199209051635 0.0142777035129373
199209051640 0.0143137736204272
199209051645 0.0143496803933311
199209051650 0.0143884846568795
199209051655 0.0144296720411787
199209051700 0.0144648782371552
199209051705 0.0145001017185751
199209051710 0.0145408529073247
199209051715 0.0145785344812206
199209051720 0.0146152619189422
199209051725 0.0146520340517378
199209051730 0.0146929379254205
199209051735 0.0147309617689439
199209051740 0.014767837999602
199209051745 0.0148074481238972
199209051750 0.0148446326353487
199209051755 0.0148817972120299
199209051800 0.0149213555785233
199209051805 0.0149612603522056
199209051810 0.0149976238116493
199209051815 0.0150397127131146
199209051820 0.0150771715353043
199209051825 0.0151163822305226
199209051830 0.0151526358005295
199209051835 0.0151895370466822
199209051840 0.0152325419550858
199209051845 0.0152684158920726
199209051850 0.0153083376915314
199209051855 0.0153463408583736
199209051900 0.0153862549533301
199209051905 0.0154259347188576
199209051910 0.0154636969668199
199209051915 0.0155055025251865
199209051920 0.0155435973249051
199209051925 0.0155837111751493
199209051930 0.015622594524188
199209051935 0.0156624963218414
199209051940 0.0157012288352384
199209051945 0.0157412813899678
199209051950 0.0157803988254575
199209051955 0.0158207299301631
199209052000 0.015858557370843
199209052005 0.0158977639638289
199209052010 0.0159378246032028
199209052015 0.0159795063986222
199209052020 0.0160170287948692
199209052025 0.0160592419203315
199209052030 0.0160974697266364
199209052035 0.0161371004803402
199209052040 0.0161773516938786
199209052045 0.0162194501730175
199209052050 0.0162590489725773
199209052055 0.0162996832723936
199209052100 0.016339595244785
199209052105 0.0163805497371759
199209052110 0.0164204437123051
199209052115 0.0164614765288561
199209052120 0.0165002576402756
199209052125 0.0165397173573737
199209052130 0.0165813568719765
199209052135 0.0166204215817447
199209052140 0.0166624137430626
199209052145 0.0167031275849258
199209052150 0.016743309623393
199209052155 0.0167864633110984
199209052200 0.0168266463583055
199209052205 0.0168686010533782
199209052210 0.0169074300453658
199209052215 0.0169477623428563
199209052220 0.0169894919401649
199209052225 0.0170328204145561
199209052230 0.0170719357643322
199209052235 0.0171147398835275
199209052240 0.0171543152568524
199209052245 0.0171939199501453
199209052250 0.0172370967859644
199209052255 0.0172835097593526
199209052300 0.0173210508828667
199209052305 0.017359550939947
199209052310 0.0174049047750896
199209052315 0.0174473139510566
199209052320 0.0174869453649403
199209052325 0.0175270077965208
199209052330 0.0175707049308099
199209052335 0.0176158855710091
199209052340 0.0176567954888008
199209052345 0.0176994510919109
199209052350 0.0177385952664056
199209052355 0.0177776521111598
199209060000 0.0178267568347433
199209060005 0.0178684308432584
199209060010 0.0179069991811882
199209060015 0.0179541406736652
199209060020 0.0179934892058151
199209060025 0.0180322857990622
199209060030 0.0180778493536587
199209060035 0.0181239991028719
199209060040 0.0181651046666795
199209060045 0.0182063455230373
199209060050 0.0182467444161754
199209060055 0.018291940638347
199209060100 0.0183323252841585
199209060105 0.0183784877083606
199209060110 0.0184189851859779
199209060115 0.0184625369810583
199209060120 0.0185044245585084
199209060125 0.018547762031594
199209060130 0.0185909049310488
199209060135 0.0186349819574188
199209060140 0.0186771927810721
199209060145 0.0187230570592308
199209060150 0.0187663565023007
199209060155 0.0188110284763416
199209060200 0.0188530349785814
199209060205 0.0188969964202208
199209060210 0.0189380172254496
199209060215 0.018981068418022
199209060220 0.0190261030130091
199209060225 0.0190727459615321
199209060230 0.0191150562513866
199209060235 0.0191588919838896
199209060240 0.0192024873962617
199209060245 0.0192471560181897
199209060250 0.019288715461174
199209060255 0.019335113260589
199209060300 0.019378255619029
199209060305 0.0194233059782041
199209060310 0.0194650436343709
199209060315 0.01951077559518
199209060320 0.0195523290291755
199209060325 0.0196023227697822
199209060330 0.0196439231808593
199209060335 0.0196866770019818
199209060340 0.0197300080952815
199209060345 0.0197758956711499
199209060350 0.0198211633785577
199209060355 0.0198668449979492
199209060400 0.0199114830285665
199209060405 0.0199570142209796
199209060410 0.0199979759464684
199209060415 0.0200503698525736
199209060420 0.0200924333846823
199209060425 0.0201368478970378
199209060430 0.0201811754631061
199209060435 0.0202260662096508
199209060440 0.020271473784934
199209060445 0.020315230394655
199209060450 0.0203589157384787
199209060455 0.0204038132192654
199209060500 0.020450849919588
199209060505 0.0205005739001949
199209060510 0.020544359714996
199209060515 0.0205859071492195
199209060520 0.0206328547571713
199209060525 0.020683151731012
199209060530 0.0207264587930985
199209060535 0.0207716369474153
199209060540 0.0208171911451023
199209060545 0.0208636676886733
199209060550 0.0209059764650101
199209060555 0.0209568674364764
199209060600 0.0210014342737344
199209060605 0.0210454249150349
199209060610 0.0210900510801907
199209060615 0.0211323562361781
199209060620 0.0211871117852084
199209060625 0.0212327907011306
199209060630 0.0212773869744957
199209060635 0.021323961043551
199209060640 0.0213678948754124
199209060645 0.0214095279663291
199209060650 0.0214661813544871
199209060655 0.0215096876141681
199209060700 0.021555474237151
199209060705 0.0216074270902058
199209060710 0.0216461226192555
199209060715 0.0217030718044192
199209060720 0.0217451486221763
199209060725 0.0217875309759387
199209060730 0.0218357187775305
199209060735 0.0218783458912764
199209060740 0.0219276881966434
199209060745 0.0219809733599894
199209060750 0.0220222102621016
199209060755 0.0220745288450544
199209060800 0.0221198322968319
199209060805 0.022168060073846
199209060810 0.0222139850329919
199209060815 0.0222624441774765
199209060820 0.0223050189419316
199209060825 0.0223584289728371
199209060830 0.0224034813284434
199209060835 0.0224509912969834
199209060840 0.0224957793389995
199209060845 0.0225400829044681
199209060850 0.0225949398186373
199209060855 0.0226353649793876
199209060900 0.0226892819798437
199209060905 0.0227344348099788
199209060910 0.0227828036027775
199209060915 0.0228334777359342
199209060920 0.0228788690678093
199209060925 0.0229246534340924
199209060930 0.0229751840979861
199209060935 0.0230228073486836
199209060940 0.0230702101498599
199209060945 0.0231218893468679
199209060950 0.0231697351590324
199209060955 0.0232177407921524
199209061000 0.0232668489775148
199209061005 0.0233142996593734
199209061010 0.023360173107349
199209061015 0.0234077528677654
199209061020 0.0234581459850279
199209061025 0.023513968887389
199209061030 0.0235539761680301
199209061035 0.0236156864331026
199209061040 0.023655421927288
199209061045 0.0237090063211349
199209061050 0.0237552817227564
199209061055 0.0238024854511053
199209061100 0.0238479024780933
199209061105 0.0239011087143821
199209061110 0.0239465871047143
199209061115 0.0239963066307425
199209061120 0.0240474830014154
199209061125 0.0240960274797407
199209061130 0.0241442347695205
199209061135 0.0241961773404705
199209061140 0.0242430496940394
199209061145 0.0242922224519523
199209061150 0.0243427217399615
199209061155 0.0243953745717827
199209061200 0.0244420425997177
199209061205 0.0244916126767494
199209061210 0.0245394093163286
199209061215 0.0245925331065846
199209061220 0.0246399367129656
199209061225 0.0246899469503321
199209061230 0.024742218220473
199209061235 0.024785415988892
199209061240 0.0248450844393242
199209061245 0.0248922206417634
199209061250 0.024940554376701
199209061255 0.0249930501902593
199209061300 0.0250401194181781
199209061305 0.0250963607185288
199209061310 0.0251455179941881
199209061315 0.0251976616458152
199209061320 0.0252460739610134
199209061325 0.0252962423062883
199209061330 0.0253460321577937
199209061335 0.0253986984601495
199209061340 0.0254451137387946
199209061345 0.0254972729078609
199209061350 0.02554641176406
199209061355 0.0256006934698424
199209061400 0.0256485632471634
199209061405 0.0256993593807631
199209061410 0.0257481038077163
199209061415 0.0258036406024651
199209061420 0.0258505666647282
199209061425 0.0259067836736861
199209061430 0.0259543955132751
199209061435 0.0260050456634275
199209061440 0.0260570018411056
199209061445 0.0261118200884726
199209061450 0.0261626607853606
199209061455 0.0262129657357073
199209061500 0.0262609787919313
199209061505 0.0263124435007593
199209061510 0.0263667079926841
199209061515 0.0264159135543187
199209061520 0.0264691304213021
199209061525 0.0265228583542072
199209061530 0.0265698046725564
199209061535 0.0266314896924128
199209061540 0.0266791127385223
199209061545 0.0267308296006779
199209061550 0.0267813611131546
199209061555 0.0268349027005024
199209061600 0.0268864402725874
199209061605 0.0269405821606183
199209061610 0.0269899755819029
199209061615 0.0270419306649122
199209061620 0.0270902450094084
199209061625 0.0271503561339151
199209061630 0.0271998903811223
199209061635 0.0272527417902928
199209061640 0.0273020085575382
199209061645 0.0273563521027777
199209061650 0.0274048873172127
199209061655 0.0274620286131713
199209061700 0.0275097969874501
199209061705 0.0275673665461697
199209061710 0.0276156332875446
199209061715 0.0276682631416077
199209061720 0.0277239610765408
199209061725 0.0277723856003043
199209061730 0.0278288560551912
199209061735 0.0278804955819184
199209061740 0.0279333186695029
199209061745 0.027985907086079
199209061750 0.0280405716044141
199209061755 0.0280966176015522
199209061800 0.0281470754483019
199209061805 0.02820170318494
199209061810 0.0282543588697837
199209061815 0.0283109142864946
199209061820 0.0283632391993194
199209061825 0.0284163424796777
199209061830 0.0284671209287599
199209061835 0.0285225291970042
199209061840 0.0285735773625945
199209061845 0.028619923813689
199209061850 0.0286892074408066
199209061855 0.0287394297386962
199209061900 0.028793228924162
199209061905 0.0288470234127166
199209061910 0.0288972498087199
199209061915 0.0289529120871805
199209061920 0.0290065592260927
199209061925 0.0290598862776437
199209061930 0.0291156960562332
199209061935 0.0291598960610712
199209061940 0.0292263312408344
199209061945 0.0292794771327569
199209061950 0.029331843112398
199209061955 0.0293869482865588
199209062000 0.029438068608844
199209062005 0.0294956436838871
199209062010 0.0295463672280535
199209062015 0.0295946625072531
199209062020 0.0296578952604358
199209062025 0.0297106294143087
199209062030 0.0297621811316362
199209062035 0.0298222053352079
199209062040 0.0298717771263679
199209062045 0.0299333114205686
199209062050 0.0299844127891911
199209062055 0.0300425284439083
199209062100 0.0300916850139971
199209062105 0.0301553695926795
199209062110 0.0302062602720875
199209062115 0.0302577998268308
199209062120 0.030311080579577
199209062125 0.0303673523309081
199209062130 0.03042577576562
199209062135 0.0304803218951501
199209062140 0.0305338952299803
199209062145 0.0305904212152796
199209062150 0.0306433517997177
199209062155 0.0307007949655887
199209062200 0.0307544663070753
199209062205 0.0308101561982864
199209062210 0.0308666905590274
199209062215 0.030925859345453
199209062220 0.0309792834706269
199209062225 0.0310279722784989
199209062230 0.0310911398964436
199209062235 0.0311521854526763
199209062240 0.0312055953787861
199209062245 0.0312590751535739
199209062250 0.0313145800583726
199209062255 0.0313783106692626
199209062300 0.0314332178930536
199209062305 0.031488162557068
199209062310 0.0315368877383382
199209062315 0.0316016961820153
199209062320 0.0316524316702938
199209062325 0.0316999905198452
199209062330 0.031766205906527
199209062335 0.0318158215920534
199209062340 0.0318761916383905
199209062345 0.0319352752610137
199209062350 0.0319880991345203
199209062355 0.0320376753837801
199209070000 0.0321044266164085
199209070005 0.0321556377750573
199209070010 0.0322163221306454
199209070015 0.0322705752016124
199209070020 0.0323237676519429
199209070025 0.0323933898561125
199209070030 0.0324457231771464
199209070035 0.0325013895523695
199209070040 0.0325546347380349
199209070045 0.0326125727478595
199209070050 0.0326662891784536
199209070055 0.0327296668574105
199209070100 0.0327813360919978
199209070105 0.0328454822301027
199209070110 0.0328983406329755
199209070115 0.0329564594207969
199209070120 0.0330103450581161
199209070125 0.033067151764434
199209070130 0.0331281785138736
199209070135 0.0331935508482149
199209070140 0.0332475945328493
199209070145 0.0333060853175149
199209070150 0.0333555167607113
199209070155 0.0334235398560258
199209070200 0.0334740120484883
199209070205 0.0335256672608626
199209070210 0.0335921526920539
199209070215 0.0336498099371633
199209070220 0.0337046032246304
199209070225 0.0337659156970535
199209070230 0.0338208235617439
199209070235 0.033881771943031
199209070240 0.0339392554340061
199209070245 0.0339982730175924
199209070250 0.0340481629076579
199209070255 0.0341238364599141
199209070300 0.034175643973556
199209070305 0.0342338809287526
199209070310 0.0342840198405822
199209070315 0.0343519426891593
199209070320 0.0344024679247924
199209070325 0.034468165509342
199209070330 0.0345230700705883
199209070335 0.0345659085230221
199209070340 0.034647046227739
199209070345 0.0347193041757543
199209070350 0.0347642489511998
199209070355 0.0348301826527374
199209070400 0.0348738326716096
199209070405 0.0349403336948423
199209070410 0.0349874292904632
199209070415 0.0350589587918077
199209070420 0.0351117970424591
199209070425 0.0351713385190945
199209070430 0.0352273335878008
199209070435 0.0352802499460994
199209070440 0.035346363112291
199209070445 0.0354095720428057
199209070450 0.0354648538879282
199209070455 0.0355242811106543
199209070500 0.0355799648491987
199209070505 0.0356389641633854
199209070510 0.0357014261073483
199209070515 0.0357547845890181
199209070520 0.0358164301834869
199209070525 0.0358794958825387
199209070530 0.0359358331389166
199209070535 0.0359975458493818
199209070540 0.036056262127625
199209070545 0.0361183523784806
199209070550 0.0361762704523111
199209070555 0.0362380396292679
199209070600 0.0362946381463793
199209070605 0.0363471716825275
199209070610 0.0364121779581256
199209070615 0.0364802997647844
199209070620 0.0365365429120981
199209070625 0.0365844584130785
199209070630 0.0366644922110749
199209070635 0.0367251421628079
199209070640 0.0367780916872552
199209070645 0.0368395854554807
199209070650 0.0368915618553991
199209070655 0.036963527841889
199209070700 0.037012152068335
199209070705 0.0370828593389846
199209070710 0.0371317196360418
199209070715 0.0372111478262897
199209070720 0.0372623820395905
199209070725 0.0373119318191372
199209070730 0.0373769624379203
199209070735 0.0374426769984045
199209070740 0.0374984847441398
199209070745 0.0375514298557587
199209070750 0.0376155923818738
199209070755 0.0376872342269442
199209070800 0.0377488757599331
199209070805 0.0378015165069563
199209070810 0.0378607380009603
199209070815 0.0379174672459589
199209070820 0.0379821165062884
199209070825 0.0380537468656582
199209070830 0.0381063431374996
199209070835 0.0381566189748262
199209070840 0.0382382164016326
199209070845 0.0382958988721291
199209070850 0.0383493522478974
199209070855 0.0384172390650203
199209070900 0.0384713564356946
199209070905 0.0385249048142682
199209070910 0.0386045847059282
199209070915 0.038660900242167
199209070920 0.0387238626466756
199209070925 0.0387845569803191
199209070930 0.038840934282731
199209070935 0.0389050958464592
199209070940 0.0389641163806734
199209070945 0.0390281026679494
199209070950 0.039088152076841
199209070955 0.0391469988195424
199209071000 0.0392048486034927
199209071005 0.0392808337597593
199209071010 0.0393334447982711
199209071015 0.0394056078539279
199209071020 0.0394609271016465
199209071025 0.0395121925881941
199209071030 0.0395850344462277
199209071035 0.0396472925987611
199209071040 0.0397060199153823
199209071045 0.0397730757729829
199209071050 0.0398310673581777
199209071055 0.0398840155667246
199209071100 0.0399566019552027
199209071105 0.040023084611331
199209071110 0.0400759724281312
199209071115 0.0401502749670604
199209071120 0.0402021497109682
199209071125 0.0402753372401171
199209071130 0.0403318136721446
199209071135 0.0403883180387734
199209071140 0.0404539204725262
199209071145 0.0405198277733157
199209071150 0.0405786493872577
199209071155 0.0406465980872498
199209071200 0.0407078199835203
199209071205 0.0407651480833893
199209071210 0.040845096928481
199209071215 0.0408949395612237
199209071220 0.0409767764610779
199209071225 0.0410064797878374
199209071230 0.0410926266007799
199209071235 0.0411503592375733
199209071240 0.0412131571047589
199209071245 0.0412722654364761
199209071250 0.041337870968431
199209071255 0.0413917284099976
199209071300 0.0414676809769083
199209071305 0.0415219665140041
199209071310 0.0415962467270841
199209071315 0.0416526071850494
199209071320 0.0417011335844017
199209071325 0.0417847608759661
199209071330 0.0418438283423762
199209071335 0.0419073749441527
199209071340 0.0419705552929996
199209071345 0.0420256541684249
199209071350 0.0421074981171851
199209071355 0.0421633202170834
199209071400 0.042213493740158
199209071405 0.0422984382400326
199209071410 0.0423609542734968
199209071415 0.0424126779319224
199209071420 0.0424864074516471
199209071425 0.0425432704394969
199209071430 0.0425903980272464
199209071435 0.0426768013641051
199209071440 0.0427336557771542
199209071445 0.0428002516309323
199209071450 0.0428723436732193
199209071455 0.0429146551343963
199209071500 0.0429998096359619
199209071505 0.0430557253261296
199209071510 0.0431177039007437
199209071515 0.0431881040641406
199209071520 0.0432588409994673
199209071525 0.043314747994619
199209071530 0.0433698862508777
199209071535 0.0434554350070369
199209071540 0.043488957668452
199209071545 0.0435774811304331
199209071550 0.0436356292898888
199209071555 0.0437005322053366
199209071600 0.0437624702919871
199209071605 0.0438229895729501
199209071610 0.0438882118630614
199209071615 0.0439613461642103
199209071620 0.0440432116050821
199209071625 0.0441050608227067
199209071630 0.0441595136675907
199209071635 0.0442099532990912
199209071640 0.0442965198436456
199209071645 0.0443493653759941
199209071650 0.0443995496726851
199209071655 0.0444726847694695
199209071700 0.0445469865224307
199209071705 0.0446059490530285
199209071710 0.0446668062177434
199209071715 0.0447308449785706
199209071720 0.0447990253105758
199209071725 0.0448603904554352
199209071730 0.0449181980317033
199209071735 0.0449909279577947
199209071740 0.0450412833840703
199209071745 0.0451300422967174
199209071750 0.0451835249279281
199209071755 0.0452718906867862
199209071800 0.0453066669879299
199209071805 0.045385270666741
199209071810 0.0454483634548139
199209071815 0.0455040337535192
199209071820 0.04559476940002
199209071825 0.0456487671875352
199209071830 0.0457056591419125
199209071835 0.0457728147080043
199209071840 0.045848398496643
199209071845 0.0459342647975233
199209071850 0.0459819455501529
199209071855 0.0460473206949141
199209071900 0.0461077399112671
199209071905 0.0461662633265454
199209071910 0.0462363369765828
199209071915 0.0463129075795089
199209071920 0.0463734596238203
199209071925 0.046440409056003
199209071930 0.0464987927943792
199209071935 0.0465710973465769
199209071940 0.0466285177006729
199209071945 0.0467069239923413
199209071950 0.0467677505292616
199209071955 0.0468300131962517
199209072000 0.0468906024765169
199209072005 0.0469588708179202
199209072010 0.0470313542804325
199209072015 0.0470986796050727
199209072020 0.0471592838297844
199209072025 0.0472305492613056
199209072030 0.0472933148897219
199209072035 0.0473473719416777
199209072040 0.0474317203811017
199209072045 0.0474863033347426
199209072050 0.047558313109493
199209072055 0.0476368143859303
199209072100 0.0476940224423619
199209072105 0.047766561246619
199209072110 0.0478251125316312
199209072115 0.0479005340582484
199209072120 0.047964108302618
199209072125 0.0480207831595978
199209072130 0.0481124119305539
199209072135 0.0481575717655119
199209072140 0.0482462564244149
199209072145 0.0483135017206521
199209072150 0.048370138693535
199209072155 0.0484136818219547
199209072200 0.0485084776260982
199209072205 0.0485646649985774
199209072210 0.0486215094913406
199209072215 0.0487022430778731
199209072220 0.0487588213672789
199209072225 0.0488326106037742
199209072230 0.0488856956289408
199209072235 0.0489707296110875
199209072240 0.0490252826240776
199209072245 0.0490983771027465
199209072250 0.0491769943875926
199209072255 0.0492377469239352
199209072300 0.0493010948663429
199209072305 0.0493719845682276
199209072310 0.0494491006898381
199209072315 0.049505239668906
199209072320 0.0495899854097091
199209072325 0.0496534690213823
199209072330 0.0497036649248855
199209072335 0.0497816671123075
199209072340 0.0498699665862765
199209072345 0.0499538406265916
199209072350 0.0499645097460948
199209072355 0.0500371546386466
199209080000 0.0501106616899286
199209080005 0.0501777364069183
199209080010 0.0502419321384501
199209080015 0.0503306505404555
199209080020 0.0503878162608092
199209080025 0.0504633321322626
199209080030 0.0505354841348228
199209080035 0.0505963948924122
199209080040 0.0506534718907254
199209080045 0.0507456522958878
199209080050 0.0508085260623218
199209080055 0.05088116927151
199209080100 0.0509640674555384
199209080105 0.0509809000447585
199209080110 0.0510555651270659
199209080115 0.0511232225612096
199209080120 0.0511951313128929
199209080125 0.0512706381280721
199209080130 0.0513428156361547
199209080135 0.0514049682868938
199209080140 0.0514975209343493
199209080145 0.0515303663491237
199209080150 0.0516074344029853
199209080155 0.051685164742435
199209080200 0.0517503088689767
199209080205 0.0518207876117022
199209080210 0.0518863474734286
199209080215 0.0519543251776805
199209080220 0.0520212419432117
199209080225 0.052094661509359
199209080230 0.0521615764227043
199209080235 0.0522363690224837
199209080240 0.0523004833392309
199209080245 0.0523652284122169
199209080250 0.0524365628549986
199209080255 0.0525062530230209
199209080300 0.0525583231811133
199209080305 0.0526534769123649
199209080310 0.0527209379007217
199209080315 0.0527809042517458
199209080320 0.0528496458884738
199209080325 0.0529032268809726
199209080330 0.0529996416905611
199209080335 0.0530646640641118
199209080340 0.0531122156134953
199209080345 0.0532037999304497
199209080350 0.0532716262097908
199209080355 0.0533336646898715
199209080400 0.0533875360723636
199209080405 0.053476998733893
199209080410 0.0535398611232699
199209080415 0.0535942295995334
199209080420 0.0536913463828326
199209080425 0.0537566565902055
199209080430 0.0538024872119546
199209080435 0.0538920430564828
199209080440 0.0539526035228354
199209080445 0.0540240191553235
199209080450 0.0541012901512921
199209080455 0.0541633280546908
199209080500 0.0542570938487365
199209080505 0.0543257544440478
199209080510 0.0543726991791416
199209080515 0.0544468078852507
199209080520 0.0545261394733976
199209080525 0.0545959155520645
199209080530 0.0546423844784307
199209080535 0.0547106823107441
199209080540 0.0547860375647196
199209080545 0.054868171336701
199209080550 0.0549546087770885
199209080555 0.0550221136084584
199209080600 0.0550706662782114
199209080605 0.0551354351127495
199209080610 0.0552077140763032
199209080615 0.0552840701999847
199209080620 0.0553556257572204
199209080625 0.0554188445867186
199209080630 0.0554902693314301
199209080635 0.0555547160675699
199209080640 0.0556069892974201
199209080645 0.0557103979826252
199209080650 0.0557746071354211
199209080655 0.0558241535896575
199209080700 0.0559251278906891
199209080705 0.0559778167442367
199209080710 0.0560714305595911
199209080715 0.056124121595354
199209080720 0.0561952973463455
199209080725 0.056269218458962
199209080730 0.0563259169767558
199209080735 0.056420506111503
199209080740 0.0564767387694237
199209080745 0.0565490971615603
199209080750 0.0566305041224976
199209080755 0.0566931592377155
199209080800 0.0567563357687585
199209080805 0.0568404547023332
199209080810 0.0568892095133291
199209080815 0.0569827342733748
199209080820 0.0570456968223253
199209080825 0.0571189389249136
199209080830 0.0571743297694634
199209080835 0.0572649519863527
199209080840 0.0573278121855795
199209080845 0.0573827708903997
199209080850 0.0574578636240773
199209080855 0.0575399125247768
199209080900 0.057617477797689
199209080905 0.0576662288315284
199209080910 0.0577572450962815
199209080915 0.0578216873955717
199209080920 0.0578823663032468
199209080925 0.0579657519274612
199209080930 0.0580297609033879
199209080935 0.0581034437510968
199209080940 0.0581688820045311
199209080945 0.0582397731683772
199209080950 0.0583106581775042
199209080955 0.0583796709105454
199209081000 0.0584584822718454
199209081005 0.0585304370782818
199209081010 0.0585944610316251
199209081015 0.058642539942372
199209081020 0.0587485650401942
199209081025 0.058812996664523
199209081030 0.0588802262943566
199209081035 0.0589520691927433
199209081040 0.0590250189955201
199209081045 0.0590835527673259
199209081050 0.0591846834766615
199209081055 0.0592143847375395
199209081100 0.0593101213150238
199209081105 0.0593775948197489
199209081110 0.0594571074312543
199209081115 0.059524001040075
199209081120 0.0595930485716684
199209081125 0.0596654283305638
199209081130 0.0597366182540027
199209081135 0.0598126437918598
199209081140 0.0598890203980718
199209081145 0.0599581739665391
199209081150 0.0600321981285177
199209081155 0.0601012989623229
199209081200 0.0601765633095879
199209081205 0.0602459937405215
199209081210 0.0603218797562993
199209081215 0.0603910088815492
199209081220 0.0604490824199111
199209081225 0.0605409482295077
199209081230 0.0605950080810823
199209081235 0.060677991590729
199209081240 0.0607443210166337
199209081245 0.0608244077594264
199209081250 0.060893462754705
199209081255 0.0609618504783313
199209081300 0.0610408833223961
199209081305 0.0611055904230077
199209081310 0.0611813928934027
199209081315 0.0612513034762978
199209081320 0.0613111998821185
199209081325 0.0614055747195471
199209081330 0.0614685214986853
199209081335 0.0615458019442109
199209081340 0.0616127667810255
199209081345 0.0616634723018716
199209081350 0.0617683574712995
199209081355 0.0618146336174887
199209081400 0.0619128798621079
199209081405 0.0619798590983096
199209081410 0.062059531259292
199209081415 0.062113685745732
199209081420 0.0621853634783527
199209081425 0.0622448309799979
199209081430 0.0623484467760957
199209081435 0.0624218048058006
199209081440 0.0624887065190717
199209081445 0.0625578524201147
199209081450 0.0626187645950009
199209081455 0.0627205063487266
199209081500 0.0627803122183487
199209081505 0.0628355609006129
199209081510 0.0629366332767956
199209081515 0.0629606636539023
199209081520 0.0630501081267303
199209081525 0.0631187479838451
199209081530 0.0632205409903268
199209081535 0.0632762444442356
199209081540 0.0633485655400603
199209081545 0.063415944136063
199209081550 0.063494538430878
199209081555 0.0635815281789895
199209081600 0.0636390862824586
199209081605 0.063736691426553
199209081610 0.0637791033848647
199209081615 0.0638607136363738
199209081620 0.0639328240390546
199209081625 0.0640042968021734
199209081630 0.0640692512816993
199209081635 0.0641667170565492
199209081640 0.0642348379247014
199209081645 0.0643032847395261
199209081650 0.0643805776090267
199209081655 0.0644350990241359
199209081700 0.0645025499541821
199209081705 0.0646023537510225
199209081710 0.064676179347746
199209081715 0.0647330992738557
199209081720 0.0648185410992262
199209081725 0.0648746220151351
199209081730 0.0649786402399487
199209081735 0.065037381199013
199209081740 0.065123230411645
199209081745 0.0651804942858752
199209081750 0.0652657883094787
199209081755 0.0653431567475396
199209081800 0.065386501030189
199209081805 0.0654907752070256
199209081810 0.0655562509444243
199209081815 0.0656215578693673
199209081820 0.0656745164753528
199209081825 0.0657646457656196
199209081830 0.0658474232522737
199209081835 0.0659146909021158
199209081840 0.065959484396001
199209081845 0.0660690625269909
199209081850 0.0661386587184232
199209081855 0.0662158086638072
199209081900 0.0662856606676303
199209081905 0.0663490759305233
199209081910 0.0664508645774876
199209081915 0.0664921902538125
199209081920 0.0665685650432723
199209081925 0.0666504920327887
199209081930 0.0667172347735718
199209081935 0.066802908405714
199209081940 0.0668893246274376
199209081945 0.0669507494676254
199209081950 0.0670311080921698
199209081955 0.0670922682628382
199209082000 0.0671707436514757
199209082005 0.0672330838670871
199209082010 0.0673271477149884
199209082015 0.0673759046593585
199209082020 0.0674537047586152
199209082025 0.0675307483666973
199209082030 0.067589445993448
199209082035 0.0676904830398717
199209082040 0.0677684476597182
199209082045 0.0678265840101894
199209082050 0.0678959247928137
199209082055 0.0679841233688382
199209082100 0.0680483974441936
199209082105 0.0681225682647654
199209082110 0.0682040721044002
199209082115 0.0682882069160538
199209082120 0.068357123030628
199209082125 0.0684333225413091
199209082130 0.0685011092242245
199209082135 0.0685834492052811
199209082140 0.0686496811540575
199209082145 0.0687512638762686
199209082150 0.0688014767060282
199209082155 0.0688671110656159
199209082200 0.0689501487176141
199209082205 0.0690107721384148
199209082210 0.0690998007847977
199209082215 0.0691603819895105
199209082220 0.0692250698583326
199209082225 0.0692835804672175
199209082230 0.0693952279790817
199209082235 0.0694358109093551
199209082240 0.0695340689010043
199209082245 0.069609063037038
199209082250 0.0696906837854366
199209082255 0.0697567807733251
199209082300 0.0698281826658894
199209082305 0.0699047642859063
199209082310 0.0699872041117407
199209082315 0.0700573182623356
199209082320 0.070150301226706
199209082325 0.0702130935957692
199209082330 0.0703012953550004
199209082335 0.0703510069214123
199209082340 0.0704272553799462
199209082345 0.0705011615026974
199209082350 0.0705861002510339
199209082355 0.0706626388204867
199209090000 0.0707199048567297
199209090005 0.0708056621954273
199209090010 0.0708861882638223
199209090015 0.0709573742144608
199209090020 0.0710195470185377
199209090025 0.0711042027548662
199209090030 0.0711870279427362
199209090035 0.0712411903946638
199209090040 0.0713237154810241
199209090045 0.0713909087436558
199209090050 0.0714973732322818
199209090055 0.0715508306993565
199209090100 0.0716258064322168
199209090105 0.0716887985562442
199209090110 0.071777266576709
199209090115 0.0718267111201819
199209090120 0.0719140203671976
199209090125 0.0720080681828852
199209090130 0.0720528417745176
199209090135 0.0721442130002087
199209090140 0.0721996013823405
199209090145 0.0723120960417969
199209090150 0.0724144144035862
199209090155 0.0724419394255795
199209090200 0.0725200483349437
199209090205 0.072591405741304
199209090210 0.0726985060246663
199209090215 0.0727951602233108
199209090220 0.0728455635644534
199209090225 0.0728971718284532
199209090230 0.0729743022917277
199209090235 0.0730512635329238
199209090240 0.0731136276878244
199209090245 0.0732164829854316
199209090250 0.0732941313594444
199209090255 0.0733642110852566
199209090300 0.0734407743493939
199209090305 0.0735019779864908
199209090310 0.0735915066206801
199209090315 0.0736927605930471
199209090320 0.0737605348772803
199209090325 0.0738209081654396
199209090330 0.0738940496137794
199209090335 0.0739602238203164
199209090340 0.0740310544996422
199209090345 0.0741005109004814
199209090350 0.0741628909362162
199209090355 0.0742634207396723
199209090400 0.0743147577839151
199209090405 0.0744255074895472
199209090410 0.0745020624115204
199209090415 0.0745813383595551
199209090420 0.0746430583620705
199209090425 0.0747320761538103
199209090430 0.0747681977814611
199209090435 0.0748431421524241
199209090440 0.0749457041869639
199209090445 0.0750129540508602
199209090450 0.0750998350002646
199209090455 0.0751718472742487
199209090500 0.0752528668935164
199209090505 0.0753125344818522
199209090510 0.0753761599768819
199209090515 0.0754850881085965
199209090520 0.075529496956023
199209090525 0.0755973144268269
199209090530 0.0757084044083862
199209090535 0.0757627348908775
199209090540 0.0758405627476775
199209090545 0.0759244682604557
199209090550 0.0760159362320901
199209090555 0.0760844083948956
199209090600 0.0761883831742588
199209090605 0.0762555430940614
199209090610 0.0763287417677845
199209090615 0.0763977217348555
199209090620 0.0764494700069575
199209090625 0.0765314682552415
199209090630 0.0766049970139453
199209090635 0.0766798923176874
199209090640 0.0767657591329821
199209090645 0.0768043945848566
199209090650 0.0769067194328342
199209090655 0.0769802794598172
199209090700 0.0770386706347042
199209090705 0.077148037965181
199209090710 0.0772123130638105
199209090715 0.0772705300150047
199209090720 0.0773810122670321
199209090725 0.0774433483140665
199209090730 0.0775097287768141
199209090735 0.077604135466516
199209090740 0.0776768967699245
199209090745 0.0777405432332987
199209090750 0.0777938489453581
199209090755 0.0778964796417949
199209090800 0.0779676173475923
199209090805 0.078052098984162
199209090810 0.0781250388709888
199209090815 0.078162135807726
199209090820 0.0782709690458252
199209090825 0.0783366981601574
199209090830 0.0784303267205155
199209090835 0.0784913405867426
199209090840 0.0785951054392431
199209090845 0.0786679182781172
199209090850 0.0787381999310718
199209090855 0.0788194660701936
199209090900 0.0788885434992853
199209090905 0.0789768031154461
199209090910 0.0790490630038964
199209090915 0.079135889454887
199209090920 0.079172856479151
199209090925 0.0792441047293998
199209090930 0.0793417198674637
199209090935 0.0794497974554868
199209090940 0.0795183122099735
199209090945 0.079590365261658
199209090950 0.0796892412359978
199209090955 0.079750868205793
199209091000 0.0797883326483574
199209091005 0.0798702145781952
199209091010 0.0799358483238318
199209091015 0.0800097810102967
199209091020 0.0801173017985614
199209091025 0.0801938314100678
199209091030 0.0802556109182686
199209091035 0.0803500889066009
199209091040 0.0804289297144882
199209091045 0.080500584042121
199209091050 0.0805693371982575
199209091055 0.0806204316023329
199209091100 0.0807051495556748
199209091105 0.0807960445697362
199209091110 0.0808668047887689
199209091115 0.0809421756491592
199209091120 0.081017746404974
199209091125 0.0811096704226322
199209091130 0.0812020239913888
199209091135 0.0812437300236529
199209091140 0.0813062673872614
199209091145 0.0814007397982088
199209091150 0.0814651137911252
199209091155 0.0815568926433699
199209091200 0.081637748942289
199209091205 0.0816958062198326
199209091210 0.0817880029752679
199209091215 0.0818232216883679
199209091220 0.081933648235753
199209091225 0.0820083238107889
199209091230 0.0821026506456222
199209091235 0.0821762561506613
199209091240 0.0822419987122101
199209091245 0.0823477113838483
199209091250 0.0824176297837009
199209091255 0.0824941488920126
199209091300 0.0825380053658349
199209091305 0.0825929702671474
199209091310 0.0827084926149832
199209091315 0.0827860214994153
199209091320 0.0828752759521558
199209091325 0.0829484845124364
199209091330 0.0829919673309562
199209091335 0.0830572251510349
199209091340 0.0831767134612153
199209091345 0.0832397350490523
199209091350 0.0833290558152586
199209091355 0.0833868017342812
199209091400 0.0834775028177736
199209091405 0.083544080908876
199209091410 0.0836377079478717
199209091415 0.0837102228894051
199209091420 0.0837963773383556
199209091425 0.0838886668688596
199209091430 0.0839325858062336
199209091435 0.0840089489393139
199209091440 0.0841192101445966
199209091445 0.0841274606389164
199209091450 0.0842220485473493
199209091455 0.0843075628322083
199209091500 0.0843853245444909
199209091505 0.0844751812972754
199209091510 0.0845713586840772
199209091515 0.0846371065087723
199209091520 0.0847117853372289
199209091525 0.0848013590301777
199209091530 0.084865767727073
199209091535 0.0849433883498571
199209091540 0.0849938615472066
199209091545 0.0850893541018749
199209091550 0.0851693801515885
199209091555 0.0852541259398052
199209091600 0.0853175575249062
199209091605 0.0854065621166071
199209091610 0.0854632132206816
199209091615 0.0855560409491049
199209091620 0.0856286464266962
199209091625 0.0857214926172342
199209091630 0.085797432635086
199209091635 0.0858802607080865
199209091640 0.085948270579729
199209091645 0.0860461164367441
199209091650 0.0861102413642534
199209091655 0.0861936327665134
199209091700 0.0862736564725908
199209091705 0.0863484598063509
199209091710 0.0864158005715181
199209091715 0.086496678540676
199209091720 0.0865512642772589
199209091725 0.0866297006384022
199209091730 0.0867015373978711
199209091735 0.0868153047934252
199209091740 0.0868802716998076
199209091745 0.0869571584612798
199209091750 0.0870148884869379
199209091755 0.087105338793419
199209091800 0.0871530073527634
199209091805 0.087249734778262
199209091810 0.0873283439643208
199209091815 0.0873690292107852
199209091820 0.0874639348486445
199209091825 0.0875581177420171
199209091830 0.0876350181755488
199209091835 0.087713259448122
199209091840 0.087776962325442
199209091845 0.0878771037461791
199209091850 0.087955039503965
199209091855 0.0880206874231419
199209091900 0.0881093741136008
199209091905 0.0881866677421104
199209091910 0.0882695879926041
199209091915 0.0883581591544013
199209091920 0.088409485692206
199209091925 0.0884946504298641
199209091930 0.0885842580032315
199209091935 0.0886641328609428
199209091940 0.0887369268324359
199209091945 0.0888248850253814
199209091950 0.0889009497890837
199209091955 0.0889742958673381
199209092000 0.0890578357917256
199209092005 0.0891324831350006
199209092010 0.0892164301458307
199209092015 0.0892670317829817
199209092020 0.0893379693557068
199209092025 0.0894108406647088
199209092030 0.0895211057267791
199209092035 0.0895421998328144
199209092040 0.0896371909904065
199209092045 0.089711326642165
199209092050 0.0898269418963222
199209092055 0.0898727180792813
199209092100 0.0899568758819654
199209092105 0.0900263158022601
199209092110 0.0900780570364576
199209092115 0.0901850058215428
199209092120 0.090266306067995
199209092125 0.0903555749763881
199209092130 0.0904308114544731
199209092135 0.0905066637332864
199209092140 0.0905864126940429
199209092145 0.0906363475900713
199209092150 0.0906937444763794
199209092155 0.0908101802254346
199209092200 0.0908867132428888
199209092205 0.0909735623405583
199209092210 0.091051956427007
199209092215 0.0911295313857849
199209092220 0.0912404306701365
199209092225 0.0913207567407025
199209092230 0.09134677884144
199209092235 0.0914339634806113
199209092240 0.0914871222853713
199209092245 0.0915827435809585
199209092250 0.09165078754326
199209092255 0.0917172639942119
199209092300 0.0918369113344234
199209092305 0.0919102317227012
199209092310 0.0919740417128675
199209092315 0.092054086943254
199209092320 0.092127322603744
199209092325 0.0922411459628584
199209092330 0.0922682922542433
199209092335 0.0923568791618795
199209092340 0.0924516340949433
199209092345 0.092525069456263
199209092350 0.0926037941007544
199209092355 0.0926985586426059
199209100000 0.0927541080946812
