#------------------------------------------------------
# Deltares, D-Flow FM Version 1.1.35.22725:22731M, Oct 11 2012, 12:57:19
# Created on 2012-12-06T16:27:57+0100, D-Flow FM
#------------------------------------------------------
# Location    : Obs01
# Position    : (67,2)
# Source      : model
# Unit        : waterlevel
# Analyse time: most recent
# Timezone    : GMT
#------------------------------------------------------
199208310000 0
199208310005 0
199208310010 0
199208310015 0
199208310020 0
199208310025 0
199208310030 0
199208310035 0
199208310040 1.51134540720488e-16
199208310045 6.24200186442125e-15
199208310050 7.08308830371815e-14
199208310055 4.9849391797333e-13
199208310100 2.61953781130515e-12
199208310105 1.10944506680587e-11
199208310110 3.95662355158023e-11
199208310115 1.2243111294575e-10
199208310120 7.93059113571435e-09
199208310125 2.0459966981007e-08
199208310130 3.5039550492729e-08
199208310135 5.55525778344984e-08
199208310140 8.28924482854964e-08
199208310145 1.22555056351975e-07
199208310150 1.73472486562605e-07
199208310155 2.4320521608304e-07
199208310200 3.30332625445686e-07
199208310205 4.45859039971355e-07
199208310210 5.88698988217835e-07
199208310215 7.73770909102539e-07
199208310220 1.00111144393027e-06
199208310225 1.28958019303213e-06
199208310230 1.64117811765552e-06
199208310235 2.07832456080384e-06
199208310240 2.60591946112435e-06
199208310245 3.24943359948432e-06
199208310250 4.01721873641184e-06
199208310255 4.93707734743683e-06
199208310300 6.02137904226289e-06
199208310305 7.29986040354634e-06
199208310310 8.78930976011748e-06
199208310315 1.05212593154758e-05
199208310320 1.25171392311701e-05
199208310325 1.48103687781977e-05
199208310330 1.74270691442758e-05
199208310335 2.04027736372106e-05
199208310340 2.37681924939989e-05
199208310345 2.75620319207816e-05
199208310350 3.1831654977658e-05
199208310355 3.6623054384807e-05
199208310400 4.19771230698141e-05
199208310405 4.79388138350696e-05
199208310410 5.45525768408203e-05
199208310415 6.18658572349203e-05
199208310420 6.99263006323072e-05
199208310425 7.8783831256864e-05
199208310430 8.84873905225455e-05
199208310435 9.90877793576751e-05
199208310440 0.000110636579778586
199208310445 0.000123187027769401
199208310450 0.000136792126131108
199208310455 0.000151505795413497
199208310500 0.000167381512727862
199208310505 0.000184475023350057
199208310510 0.000202840825380646
199208310515 0.000222534562280038
199208310520 0.000243611056749344
199208310525 0.000266124764475783
199208310530 0.000290129159534634
199208310535 0.000315680211776818
199208310540 0.000342834315774706
199208310545 0.000371648936232289
199208310550 0.000402180399302411
199208310555 0.000434485661841636
199208310600 0.00046862481836169
199208310605 0.000504660340267789
199208310610 0.000542657201996005
199208310615 0.000582683792269047
199208310620 0.00062481758607356
199208310625 0.000669147560630395
199208310630 0.000715730905393083
199208310635 0.000764610722889205
199208310640 0.000815840561042901
199208310645 0.00086947811372927
199208310650 0.000925580624178151
199208310655 0.000984223529501772
199208310700 0.00104546073205221
199208310705 0.00110933380203422
199208310710 0.00117589827564509
199208310715 0.0012452237939815
199208310720 0.00131737634538116
199208310725 0.00139244039896903
199208310730 0.00147049963534903
199208310735 0.00155161272104524
199208310740 0.00163583839997229
199208310745 0.00172324711131776
199208310750 0.00181391711827721
199208310755 0.00190793415346945
199208310800 0.0020053854086177
199208310805 0.00210636222102676
199208310810 0.00221095836241133
199208310815 0.00231929936169537
199208310820 0.00243150260657528
199208310825 0.00254766999496834
199208310830 0.00266790271475253
199208310835 0.00279233022700502
199208310840 0.00292107558843676
199208310845 0.00305427329628366
199208310850 0.00319206779168901
199208310855 0.00333461907807792
199208310900 0.00348208873827785
199208310905 0.00363463822730537
199208310910 0.00379243046085145
199208310915 0.00395564112776227
199208310920 0.00412443798557109
199208310925 0.00429898052090805
199208310930 0.00447944002027363
199208310935 0.0046659436457368
199208310940 0.00485861018702516
199208310945 0.00505757680457398
199208310950 0.00526299514347457
199208310955 0.00547503119875205
199208311000 0.00569386644063257
199208311005 0.00591969652929924
199208311010 0.00615270543325787
199208311015 0.00639307960714849
199208311020 0.00664101257710571
199208311025 0.00689670219444148
199208311030 0.00716034718040186
199208311035 0.0074321517621561
199208311040 0.00771231979545478
199208311045 0.00800106127018522
199208311050 0.00829858108704576
199208311055 0.0086050963630484
199208311100 0.00892082698981229
199208311105 0.00924598910771687
199208311110 0.00958079263084056
199208311115 0.00992543961383925
199208311120 0.0102801244192814
199208311125 0.0106450342576942
199208311130 0.0110203501308314
199208311135 0.0114062475917335
199208311140 0.0118028976012833
199208311145 0.0122052116140161
199208311150 0.0125958836284841
199208311155 0.0129974988041652
199208311200 0.0134161169212964
199208311205 0.0138493298752958
199208311210 0.0142983539515167
199208311215 0.014761153881762
199208311220 0.0152386698887722
199208311225 0.0157293435197182
199208311230 0.0162341265592651
199208311235 0.0167518889829582
199208311240 0.0172835637607043
199208311245 0.0178282451058583
199208311250 0.0183867852728518
199208311255 0.0189584306639962
199208311300 0.0195439626630873
199208311305 0.020142743969369
199208311310 0.0207554917475134
199208311315 0.0213816583222768
199208311320 0.0220219002204961
199208311325 0.0226757397039472
199208311330 0.0233437753724291
199208311335 0.0240255854907164
199208311340 0.0247217137398025
199208311345 0.0254317849437385
199208311350 0.0261562908285986
199208311355 0.0268948958527116
199208311400 0.0276480426185659
199208311405 0.0284154302398585
199208311410 0.0291974548549177
199208311415 0.0299938463749675
199208311420 0.0308049568168154
199208311425 0.0316305435502763
199208311430 0.0324709165572385
199208311435 0.0333258577757536
199208311440 0.0341956371757706
199208311445 0.0350800586147478
199208311450 0.0359793540569174
199208311455 0.0368933467562345
199208311500 0.0378222326937736
199208311505 0.0387658520554601
199208311510 0.0397243668902645
199208311515 0.0406976318797718
199208311520 0.0416857772163297
199208311525 0.0426886696672238
199208311530 0.0437064096522567
199208311535 0.0447388736583841
199208311540 0.0457861344021151
199208311545 0.0468480757967751
199208311550 0.0479247448827966
199208311555 0.0490160308123938
199208311600 0.0501219569072358
199208311605 0.0512424155078053
199208311610 0.0523774080801556
199208311615 0.0535268282677465
199208311620 0.0546906574270327
199208311625 0.0558687888020247
199208311630 0.0570611852544478
199208311635 0.0582677381222551
199208311640 0.0594883932461316
199208311645 0.0607230387511715
199208311650 0.0619716047862302
199208311655 0.0632339751540527
199208311700 0.0645100654985351
199208311705 0.065799754380023
199208311710 0.0671029439887463
199208311715 0.0684195069001597
199208311720 0.0697493327768803
199208311725 0.0710922876299897
199208311730 0.0724482494081129
199208311735 0.0738170771254712
199208311740 0.0751986377321154
199208311745 0.0765927829432403
199208311750 0.0779993693421844
199208311755 0.0794182411832535
199208311800 0.0808492453381604
199208311805 0.0822922185151067
199208311810 0.0837469982743223
199208311815 0.0852134137759496
199208311820 0.0866912937699287
199208311825 0.0881804599331502
199208311830 0.0896807326417361
199208311835 0.0911919262156121
199208311840 0.0927138530640667
199208311845 0.0942463203320336
199208311850 0.0957891328588382
199208311855 0.0973420908434233
199208311900 0.0989049919461375
199208311905 0.100477629687913
199208311910 0.102059794939622
199208311915 0.103651274847782
199208311920 0.105251853889404
199208311925 0.106861313166431
199208311930 0.108479431161699
199208311935 0.110105983293321
199208311940 0.111740742461419
199208311945 0.113383478784047
199208311950 0.115033960001355
199208311955 0.116691951337322
199208312000 0.118357215807871
199208312005 0.120029514169369
199208312010 0.121708605163023
199208312015 0.123394245523052
199208312020 0.125086190179572
199208312025 0.126784192307781
199208312030 0.128488003504414
199208312035 0.130197373864019
199208312040 0.13191205213774
199208312045 0.133631785839459
199208312050 0.135356321387768
199208312055 0.137085404217608
199208312100 0.138818778925997
199208312105 0.140556189392472
199208312110 0.142297378921446
199208312115 0.144042090369342
199208312120 0.145790066285785
199208312125 0.14754104904557
199208312130 0.149294780989566
199208312135 0.151051004560069
199208312140 0.152809462441768
199208312145 0.154569897699351
199208312150 0.156332053918538
199208312155 0.158095675345017
199208312200 0.159860507025326
199208312205 0.161626294946292
199208312210 0.163392786175407
199208312215 0.165159729000014
199208312220 0.166926873066685
199208312225 0.168693969519454
199208312230 0.170460771137639
199208312235 0.172227032472414
199208312240 0.173992509982482
199208312245 0.17575696216829
199208312250 0.177520149704914
199208312255 0.179281835573231
199208312300 0.181041785189365
199208312305 0.18279976653213
199208312310 0.184555550268384
199208312315 0.186308909876062
199208312320 0.188059621764784
199208312325 0.189807465393828
199208312330 0.191552223387341
199208312335 0.193293681646618
199208312340 0.195031629459299
199208312345 0.19676585960534
199208312350 0.198496168459612
199208312355 0.200222356090991
199209010000 0.201944226357799
199209010005 0.203661586999487
199209010010 0.205374249724417
199209010015 0.207082030293649
199209010020 0.208784748600607
199209010025 0.210482228745823
199209010030 0.212174299032043
199209010035 0.213860791997121
199209010040 0.215541544593881
199209010045 0.217216398250789
199209010050 0.218885198924959
199209010055 0.220547797150361
199209010100 0.22220404808148
199209010105 0.223853811532181
199209010110 0.225496952009907
199209010115 0.227133338745086
199209010120 0.228762845715824
199209010125 0.230385351667828
199209010130 0.232000740129609
199209010135 0.233608899422975
199209010140 0.235209722668843
199209010145 0.236803107788413
199209010150 0.238388957499761
199209010155 0.239967179309885
199209010200 0.2415376855023
199209010205 0.243100393120226
199209010210 0.244655223945473
199209010215 0.246202104473093
199209010220 0.247740965881904
199209010225 0.249271744000982
199209010230 0.250794379272235
199209010235 0.252308816709162
199209010240 0.253815005851927
199209010245 0.255312900718865
199209010250 0.256802459754546
199209010255 0.258283645774538
199209010300 0.259756425907002
199209010305 0.261220771531256
199209010310 0.262676658213451
199209010315 0.26412406563951
199209010320 0.26556297754547
199209010325 0.266993381645386
199209010330 0.268415269556932
199209010335 0.269828636724872
199209010340 0.271233482342528
199209010345 0.272629809271415
199209010350 0.274017623959194
199209010355 0.275396936356076
199209010400 0.276767759829854
199209010405 0.278130111079686
199209010410 0.279484010048792
199209010415 0.280829479836202
199209010420 0.282166546607704
199209010425 0.283495239506125
199209010430 0.284815590561082
199209010435 0.286127634598347
199209010440 0.287431409148947
199209010445 0.288726954358126
199209010450 0.290014312894296
199209010455 0.291293529858103
199209010500 0.292564652691708
199209010505 0.29382773108841
199209010510 0.295082816902706
199209010515 0.296329964060902
199209010520 0.297569228472363
199209010525 0.298800667941509
199209010530 0.300024342080629
199209010535 0.301240312223612
199209010540 0.302448641340677
199209010545 0.303649393954158
199209010550 0.304842636055442
199209010555 0.306028435023105
199209010600 0.307206859542322
199209010605 0.308377979525597
199209010610 0.309541866034874
199209010615 0.310698591205082
199209010620 0.311848228169144
199209010625 0.312990850984502
199209010630 0.314126534561188
199209010635 0.315255354591484
199209010640 0.316377387481181
199209010645 0.317492710282476
199209010650 0.318601400628528
199209010655 0.319703536669676
199209010700 0.32079919701135
199209010705 0.321888460656897
199209010710 0.322971406946861
199209010715 0.324048115495861
199209010720 0.325118666142308
199209010725 0.326183138894801
199209010730 0.327241613880263
199209010735 0.32829417129377
199209010740 0.329340891350073
199209010745 0.330381854236793
199209010750 0.331417140069282
199209010755 0.332446828847134
199209010800 0.333471000412319
199209010805 0.33448973440894
199209010810 0.335503110244576
199209010815 0.336511207053193
199209010820 0.337514103659608
199209010825 0.338511878545468
199209010830 0.33950460981673
199209010835 0.340492375172607
199209010840 0.341475251875959
199209010845 0.342453316725097
199209010850 0.343426646026966
199209010855 0.344395315571692
199209010900 0.34535940060844
199209010905 0.346318975822576
199209010910 0.347274115314086
199209010915 0.348224892577221
199209010920 0.34917138048135
199209010925 0.350113651252969
199209010930 0.351051776458851
199209010935 0.351985826990294
199209010940 0.352915873048439
199209010945 0.353841984130632
199209010950 0.354764229017781
199209010955 0.355682675762651
199209011000 0.356597391678982
199209011005 0.357508443332185
199209011010 0.35841589653015
199209011015 0.359319816315125
199209011020 0.360220266956466
199209011025 0.361117311944173
199209011030 0.362011013983189
199209011035 0.362901434988431
199209011040 0.363788636080524
199209011045 0.364672677582212
199209011050 0.365553619015418
199209011055 0.366431519098928
199209011100 0.367306435746669
199209011105 0.368178426066558
199209011110 0.369047546359899
199209011115 0.369913852121298
199209011120 0.370777398039081
199209011125 0.371638237996179
199209011130 0.372496425071473
199209011135 0.373352011541559
199209011140 0.374205048882933
199209011145 0.375055587774556
199209011150 0.375903678100786
199209011155 0.37674936895466
199209011200 0.37759270864151
199209011205 0.378433744682877
199209011210 0.379272523820732
199209011215 0.380109092021961
199209011220 0.380943494483113
199209011225 0.381775775635397
199209011230 0.382605979150163
199209011235 0.38343414794455
199209011240 0.384260324185869
199209011245 0.385084549298129
199209011250 0.385906863968075
199209011255 0.386727308151327
199209011300 0.387545921078663
199209011305 0.388362741262439
199209011310 0.38917780650313
199209011315 0.389991153895981
199209011320 0.39080281983776
199209011325 0.391612840033601
199209011330 0.39242124950393
199209011335 0.393228082591462
199209011340 0.394033372968257
199209011345 0.394837153642839
199209011350 0.395639456967356
199209011355 0.39644031464478
199209011400 0.397239757736143
199209011405 0.39803781666779
199209011410 0.398834521238663
199209011415 0.399629900627583
199209011420 0.400423983400554
199209011425 0.401216797518054
199209011430 0.402008370342333
199209011435 0.402798728644694
199209011440 0.403587898612766
199209011445 0.404375905857756
199209011450 0.405162775421681
199209011455 0.405948531784569
199209011500 0.406733198871636
199209011505 0.407516800060428
199209011510 0.408299358187923
199209011515 0.409080895557604
199209011520 0.409861433946475
199209011525 0.410640994612045
199209011530 0.41141959829926
199209011535 0.412197265247386
199209011540 0.412974015196841
199209011545 0.413749867395977
199209011550 0.414524840607801
199209011555 0.415298953116644
199209011600 0.416072222734776
199209011605 0.416844666808955
199209011610 0.417616302226922
199209011615 0.418387145423829
199209011620 0.419157212388612
199209011625 0.4199265186703
199209011630 0.420695079384254
199209011635 0.421462909218511
199209011640 0.422230022439669
199209011645 0.422996432898875
199209011650 0.423762154037959
199209011655 0.424527198895356
199209011700 0.425291580111963
199209011705 0.426055309936933
199209011710 0.4268184002334
199209011715 0.427580862484139
199209011720 0.428342707797112
199209011725 0.42910394691107
199209011730 0.429864590201022
199209011735 0.430624647683638
199209011740 0.431384129022597
199209011745 0.432143043533867
199209011750 0.432901400190924
199209011755 0.433659207629913
199209011800 0.434416474154743
199209011805 0.435173207742123
199209011810 0.435929416046541
199209011815 0.436685106405178
199209011820 0.437440285842772
199209011825 0.438194961076412
199209011830 0.438949138520289
199209011835 0.439702824290375
199209011840 0.440456024209064
199209011845 0.441208743809742
199209011850 0.441960988341312
199209011855 0.442712762772662
199209011900 0.443464071797086
199209011905 0.444214919836642
199209011910 0.444965311046473
199209011915 0.445715249319065
199209011920 0.446464738288468
199209011925 0.447213781334454
199209011930 0.447962381586646
199209011935 0.448710541928579
199209011940 0.449458265001733
199209011945 0.450205553209511
199209011950 0.450952408721172
199209011955 0.451698833475731
199209012000 0.452444829185798
199209012005 0.453190397341397
199209012010 0.453935539213511
199209012015 0.454680255857871
199209012020 0.455424548119183
199209012025 0.456168416634387
199209012030 0.456911861836267
199209012035 0.457654883957015
199209012040 0.45839748303177
199209012045 0.459139658902113
199209012050 0.459881411219536
199209012055 0.460622739448865
199209012100 0.461363642871657
199209012105 0.462104120589558
199209012110 0.462844171527637
199209012115 0.463583794437675
199209012120 0.464322987901434
199209012125 0.465061750333891
199209012130 0.465800079986437
199209012135 0.466537974950053
199209012140 0.467275433158454
199209012145 0.468012452391204
199209012150 0.468749030276803
199209012155 0.469485164295747
199209012200 0.470220851783558
199209012205 0.470956089933792
199209012210 0.471690875801017
199209012215 0.472425206303765
199209012220 0.473159078227462
199209012225 0.47389248822733
199209012230 0.474625432831263
199209012235 0.475357908442684
199209012240 0.476089911343371
199209012245 0.476821437696268
199209012250 0.477552483548264
199209012255 0.478283044832953
199209012300 0.479013117373376
199209012305 0.479742696884729
199209012310 0.480471778977062
199209012315 0.481200359157946
199209012320 0.481928432835126
199209012325 0.482655995319145
199209012330 0.483383041825953
199209012335 0.484109567479493
199209012340 0.484835567314265
199209012345 0.485561036277872
199209012350 0.486285969233541
199209012355 0.487010360962628
199209020000 0.487734206167104
199209020005 0.488457499472013
199209020010 0.489180235427919
199209020015 0.489902408513329
199209020020 0.490624013137094
199209020025 0.491345043640796
199209020030 0.492065494301108
199209020035 0.492785359332144
199209020040 0.493504632887779
199209020045 0.494223309063956
199209020050 0.494941381900974
199209020055 0.495658845385749
199209020100 0.496375693454066
199209020105 0.497091919992805
199209020110 0.497807518842146
199209020115 0.498522483797761
199209020120 0.499236808612979
199209020125 0.49995048700094
199209020130 0.500663512636718
199209020135 0.501375879159437
199209020140 0.502087580174357
199209020145 0.502798609254945
199209020150 0.503508959944929
199209020155 0.504218625760322
199209020200 0.504927600191438
199209020205 0.505635876704882
199209020210 0.506343448745516
199209020215 0.507050309738416
199209020220 0.507756453090797
199209020225 0.508461872193925
199209020230 0.509166560425003
199209020235 0.509870511149045
199209020240 0.510573717720721
199209020245 0.511276173486182
199209020250 0.511977871784871
199209020255 0.512678805951307
199209020300 0.513378969316849
199209020305 0.51407835521144
199209020310 0.514776956965329
199209020315 0.515474767910774
199209020320 0.51617178138372
199209020325 0.516867990725459
199209020330 0.517563389284265
199209020335 0.518257970417013
199209020340 0.518951727490769
199209020345 0.519644653884363
199209020350 0.520336742989942
199209020355 0.521027988214493
199209020400 0.521719495568021
199209020405 0.522409626771582
199209020410 0.523099316050413
199209020415 0.52378802472049
199209020420 0.524475884695491
199209020425 0.525162794160535
199209020430 0.52584892926379
199209020435 0.526534170426698
199209020440 0.527218658104785
199209020445 0.52790228534272
199209020450 0.528585160764937
199209020455 0.52926719305387
199209020500 0.529948462939561
199209020505 0.53062889504798
199209020510 0.531308547588293
199209020515 0.531987359755173
199209020520 0.532665372390344
199209020525 0.533342537006447
199209020530 0.534018881352985
199209020535 0.534694366859413
199209020540 0.535369011533909
199209020545 0.536042784563766
199209020550 0.536715696778889
199209020555 0.537387723335955
199209020600 0.53805886982271
199209020605 0.538729115944295
199209020610 0.53939846349569
199209020615 0.54006689562908
199209020620 0.540734411428489
199209020625 0.541400996647269
199209020630 0.542066648459236
199209020635 0.542731354581169
199209020640 0.543395110869164
199209020645 0.544057906526151
199209020650 0.544719736525904
199209020655 0.54538059120379
199209020700 0.546040464969309
199209020705 0.546699349030637
199209020710 0.547357237463778
199209020715 0.54801412216094
199209020720 0.548669997030913
199209020725 0.549324854513972
199209020730 0.5499786884707
199209020735 0.550631491792521
199209020740 0.551283258376559
199209020745 0.551933981497225
199209020750 0.552583655148604
199209020755 0.553232272941323
199209020800 0.553879829010386
199209020805 0.554526317272698
199209020810 0.55517173203898
199209020815 0.555816067518956
199209020820 0.556459318236488
199209020825 0.557101478714018
199209020830 0.557742543816641
199209020835 0.558382508312777
199209020840 0.559021366905959
199209020845 0.559659114391741
199209020850 0.560295745572103
199209020855 0.560931255194356
199209020900 0.561565638204269
199209020905 0.562198889456345
199209020910 0.56283100397639
199209020915 0.563461976711569
199209020920 0.564091802820481
199209020925 0.564720477292424
199209020930 0.565347995381705
199209020935 0.565974351976348
199209020940 0.566599542285552
199209020945 0.567223560689857
199209020950 0.567846401864444
199209020955 0.56846805844779
199209021000 0.569088522902607
199209021005 0.569707782650875
199209021010 0.570325823762106
199209021015 0.570942622611038
199209021020 0.571558162626954
199209021025 0.57217243368235
199209021030 0.572785455924259
199209021035 0.573397237761553
199209021040 0.574007789440146
199209021045 0.574617111161971
199209021050 0.575225205849832
199209021055 0.575832070530206
199209021100 0.576437705231066
199209021105 0.577042105267565
199209021110 0.577645270398623
199209021115 0.578247195984805
199209021120 0.578847883070967
199209021125 0.579447327976121
199209021130 0.580045532763951
199209021135 0.580642494290141
199209021140 0.581238214722091
199209021145 0.581832690921103
199209021150 0.582425924821266
199209021155 0.583017913178192
199209021200 0.583608657801756
199209021205 0.584198155435355
199209021210 0.584786407924409
199209021215 0.585373412085344
199209021220 0.585959169859243
199209021225 0.586543678156246
199209021230 0.587126939004221
199209021235 0.587708949396262
199209021240 0.588289711430995
199209021245 0.588869222176188
199209021250 0.589447483800143
199209021255 0.590024493446264
199209021300 0.590600253359909
199209021305 0.591174760764429
199209021310 0.591748017989267
199209021315 0.592320022340963
199209021320 0.592890776237366
199209021325 0.59346027706987
199209021330 0.594028527347506
199209021335 0.594595524547488
199209021340 0.595161271272361
199209021345 0.595725765085928
199209021350 0.596289008686387
199209021355 0.596850999724743
199209021400 0.597411740996659
199209021405 0.597971230240711
199209021410 0.598529470351448
199209021415 0.599086459155118
199209021420 0.599642199646202
199209021425 0.600196689738474
199209021430 0.600749932527074
199209021435 0.601301926012953
199209021440 0.601852673392343
199209021445 0.602402172752833
199209021450 0.602950427391933
199209021455 0.603497435483157
199209021500 0.604043200425238
199209021505 0.604587720476752
199209021510 0.605130999137388
199209021515 0.605673034749781
199209021520 0.606213830914117
199209021525 0.606753386055966
199209021530 0.607291703875377
199209021535 0.607828782879624
199209021540 0.60836462686783
199209021545 0.608899234427644
199209021550 0.609432609456338
199209021555 0.609964750620522
199209021600 0.610495661914569
199209021605 0.611025342082568
199209021610 0.611553795214829
199209021615 0.612081020131373
199209021620 0.612607021017194
199209021625 0.613131796766642
199209021630 0.613655351658057
199209021635 0.614177684658473
199209021640 0.614698800138158
199209021645 0.615218697135148
199209021650 0.615737380110157
199209021655 0.616254848170515
199209021700 0.616771105865847
199209021705 0.617286152371038
199209021710 0.617799992323046
199209021715 0.618312624962557
199209021720 0.618824055012239
199209021725 0.619334281776816
199209021730 0.619843310063009
199209021735 0.620351139237809
199209021740 0.620857774190308
199209021745 0.621363214347989
199209021750 0.621867464680617
199209021755 0.622370524674388
199209021800 0.622872399378023
199209021805 0.623373088334666
199209021810 0.62387259667026
199209021815 0.624370923983137
199209021820 0.624868075474731
199209021825 0.625364050796809
199209021830 0.625858855224557
199209021835 0.626352488461438
199209021840 0.626844955854661
199209021845 0.627336257157657
199209021850 0.627826397787922
199209021855 0.62831537754716
199209021900 0.628803201921427
199209021905 0.629289870759008
199209021910 0.629775389612808
199209021915 0.630259758376031
199209021920 0.630742982666726
199209021925 0.63122506242137
199209021930 0.631706003321473
199209021935 0.632185805345167
199209021940 0.632664474235745
199209021945 0.633142010011401
199209021950 0.633618418475561
199209021955 0.63409369968491
199209022000 0.63456785950137
199209022005 0.635040898018575
199209022010 0.635512821155332
199209022015 0.635983629040707
199209022020 0.636453327648799
199209022025 0.63692191714262
199209022030 0.637389403549989
199209022035 0.637855787066406
199209022040 0.638321073771867
199209022045 0.638785263892927
199209022050 0.639248363560716
199209022055 0.639710373030487
199209022100 0.640171298482438
199209022105 0.640631140201181
199209022110 0.641089904414187
199209022115 0.641547591432925
199209022120 0.642004207531123
199209022125 0.642459753045856
199209022130 0.642914234295704
199209022135 0.643367651642072
199209022140 0.643820011447001
199209022145 0.644271314094974
199209022150 0.644721565990135
199209022155 0.645170767538827
199209022200 0.645618925185964
199209022205 0.646066039358552
199209022210 0.646512116540979
199209022215 0.646957157179748
199209022220 0.647401167797449
199209022225 0.647844148858954
199209022230 0.64828610692381
199209022235 0.648727042474154
199209022240 0.64916696210528
199209022245 0.649605866315517
199209022250 0.650043761734722
199209022255 0.650480648876375
199209022300 0.650916534403746
199209022305 0.651351418844452
199209022310 0.651785308894055
199209022315 0.652218205093327
199209022320 0.652650114169031
199209022325 0.653081036674143
199209022330 0.653510979365566
199209022335 0.653939942807561
199209022340 0.654367933786137
199209022345 0.654794952875954
199209022350 0.655221006891129
199209022355 0.655646096415858
199209030000 0.6560702282914
199209030005 0.656493403110659
199209030010 0.6569156277411
199209030015 0.657336902783536
199209030020 0.657757235130731
199209030025 0.658176625390646
199209030030 0.658595080480469
199209030035 0.659012601014572
199209030040 0.659429193933729
199209030045 0.659844859858018
199209030050 0.660259605750989
199209030055 0.660673432237758
199209030100 0.661086346303872
199209030105 0.661498348578845
199209030110 0.661909446069481
199209030115 0.662319639409086
199209030120 0.662728935625008
199209030125 0.663137335353772
199209030130 0.663544845642594
199209030135 0.66395146713068
199209030140 0.664357206884473
199209030145 0.664762065545349
199209030150 0.665166050198374
199209030155 0.665569161486623
199209030200 0.665971406513211
199209030205 0.666372785922478
199209030210 0.666773306835053
199209030215 0.667172969896138
199209030220 0.667571782243377
199209030225 0.667969744522471
199209030230 0.668366863887619
199209030235 0.668763140984693
199209030240 0.669158582984022
199209030245 0.669553190531362
199209030250 0.669946970812789
199209030255 0.670339924473693
199209030300 0.670732058715555
199209030305 0.671123374183189
199209030310 0.67151387809318
199209030315 0.671903571089597
199209030320 0.67229246040387
199209030325 0.672680546679199
199209030330 0.673067837161646
199209030335 0.673454332493458
199209030340 0.673840039935163
199209030345 0.674224960128018
199209030350 0.674609100346892
199209030355 0.674992461232069
199209030400 0.675375050072689
199209030405 0.675756867508118
199209030410 0.676137920841744
199209030415 0.676518210712132
199209030420 0.67689774443695
199209030425 0.677276522654124
199209030430 0.677654552695686
199209030435 0.678031835199151
199209030440 0.678408377511058
199209030445 0.678784180268784
199209030450 0.679159250833587
199209030455 0.679533589843046
199209030500 0.6799072046734
199209030505 0.68028009596284
199209030510 0.68065227110292
199209030515 0.681023730732914
199209030520 0.681394482260097
199209030525 0.681764526325369
199209030530 0.682133870352201
199209030535 0.682502514983744
199209030540 0.682870467660221
199209030545 0.683237729027728
199209030550 0.683604306543882
199209030555 0.683970200858509
199209030600 0.684335419447346
199209030605 0.684699962964821
199209030610 0.68506383890561
199209030615 0.685427047929715
199209030620 0.685789597551672
199209030625 0.686151488438187
199209030630 0.686512728124682
199209030635 0.686873317285599
199209030640 0.687233263478357
199209030645 0.687592567386543
199209030650 0.687951236590865
199209030655 0.688309271785465
199209030700 0.688666680575725
199209030705 0.689023463667896
199209030710 0.689379628693557
199209030715 0.689735176372769
199209030720 0.690090114364992
199209030725 0.690444443405955
199209030730 0.69079817118484
199209030735 0.691151298455075
199209030740 0.691503832937583
199209030745 0.691855775405703
199209030750 0.692207133614313
199209030755 0.692557908359075
199209030800 0.692908107431236
199209030805 0.693257731651413
199209030810 0.69360678884987
199209030815 0.693955279875038
199209030820 0.694303212599096
199209030825 0.694650587901409
199209030830 0.694997413699229
199209030835 0.695343690906266
199209030840 0.695689427488302
199209030845 0.696034624397104
199209030850 0.696379289650767
199209030855 0.69672342424317
199209030900 0.697067036248862
199209030905 0.697410126708262
199209030910 0.697752703756906
199209030915 0.698094768486599
199209030920 0.698436329098833
199209030925 0.6987773867421
199209030930 0.6991179496893
199209030935 0.699458019151423
199209030940 0.699797603478766
199209030945 0.700136703950898
199209030950 0.70047532900816
199209030955 0.700813480006472
199209031000 0.701151165466595
199209031005 0.701488386823407
199209031010 0.70182515270146
199209031015 0.702161464630068
199209031020 0.702497331343199
199209031025 0.702832754472253
199209031030 0.703167742869418
199209031035 0.703502298278112
199209031040 0.703836429679314
199209031045 0.704170138939869
199209031050 0.704503435181516
199209031055 0.704836320407311
199209031100 0.705168803893154
199209031105 0.70550088779258
199209031110 0.705832581550628
199209031115 0.706163887487261
199209031120 0.70649481523343
199209031125 0.70682536729339
199209031130 0.707155553502828
199209031135 0.707485376570359
199209031140 0.707814846557606
199209031145 0.708143966400165
199209031150 0.708472746409527
199209031155 0.708801189773843
199209031200 0.709129307081607
199209031205 0.709457101802537
199209031210 0.709784584832983
199209031215 0.710111759957289
199209031220 0.710438638414887
199209031225 0.710765224342542
199209031230 0.711091529363163
199209031235 0.711417558009358
199209031240 0.711743322334021
199209031245 0.71206882731571
199209031250 0.712394085491131
199209031255 0.712719102342899
199209031300 0.713043890954136
199209031305 0.713368457379279
199209031310 0.713692815321085
199209031315 0.714016971485281
199209031320 0.714340940280421
199209031325 0.714664729157314
199209031330 0.714988353332359
199209031335 0.715311821112893
199209031340 0.715635148644883
199209031345 0.715958345225619
199209031350 0.716281428076946
199209031355 0.716604407647139
199209031400 0.716927302411302
199209031405 0.717250124164772
199209031410 0.717572892852967
199209031415 0.717895621859408
199209031420 0.718218332868181
199209031425 0.718541041150742
199209031430 0.718863770465441
199209031435 0.719186538348845
199209031440 0.719509371058676
199209031445 0.719832288877706
199209031450 0.720155321109324
199209031455 0.720478491405632
199209031500 0.720801832829294
199209031505 0.721125373223034
199209031510 0.721449150358524
199209031515 0.721773197373527
199209031520 0.722097558040259
199209031525 0.72242227231164
199209031530 0.722747391761595
199209031535 0.723072965308518
199209031540 0.723399054915915
199209031545 0.723725721610277
199209031550 0.724053041598557
199209031555 0.724381092793556
199209031600 0.724709971642413
199209031605 0.725039780574185
199209031610 0.725370646135437
199209031615 0.725702708238309
199209031620 0.726036140932439
199209031625 0.726371145529762
199209031630 0.726707977376736
199209031635 0.727046948547301
199209031640 0.727388470760084
199209031645 0.727733086913222
199209031650 0.72808156983429
199209031655 0.728435073418922
199209031700 0.728795526950714
199209031705 0.729166690730598
199209031710 0.729558587773301
199209031715 0.730048591185073
199209031720 0.73019211037235
199209031725 0.730528632828655
199209031730 0.73097721895879
199209031735 0.731265946023473
199209031740 0.731642757351575
199209031745 0.732157264900504
199209031750 0.732590426905444
199209031755 0.733051058904376
199209031800 0.733298359835137
199209031805 0.733633615448653
199209031810 0.733851931370448
199209031815 0.734203166022997
199209031820 0.734517434402257
199209031825 0.734859122623978
199209031830 0.734936331555087
199209031835 0.735150679382455
199209031840 0.735469445401163
199209031845 0.735831548040398
199209031850 0.736118963430644
199209031855 0.73613259128728
199209031900 0.736493905413166
199209031905 0.736831810834873
199209031910 0.737176654496376
199209031915 0.737469928759529
199209031920 0.737692961517758
199209031925 0.737965436151195
199209031930 0.738383315837747
199209031935 0.738697892614521
199209031940 0.738951672473844
199209031945 0.739314506723211
199209031950 0.7396300421959
199209031955 0.739974406035845
199209032000 0.740038039703578
199209032005 0.740079309167536
199209032010 0.740371168929633
199209032015 0.740351739639353
199209032020 0.740756308579234
199209032025 0.741044948219297
199209032030 0.741297107767054
199209032035 0.741501173485815
199209032040 0.741768095297558
199209032045 0.742028127333529
199209032050 0.7423457757724
199209032055 0.742712139645282
199209032100 0.742819734233737
199209032105 0.74289755332169
199209032110 0.742942298908448
199209032115 0.743072376283755
199209032120 0.74335069767795
199209032125 0.743595263916316
199209032130 0.743748790744175
199209032135 0.744101844810267
199209032140 0.744315794210245
199209032145 0.744575972888471
199209032150 0.744552372000879
199209032155 0.744811467073853
199209032200 0.745007539508328
199209032205 0.745195297100513
199209032210 0.74531340298096
199209032215 0.745558006171299
199209032220 0.745985511035449
199209032225 0.746270194209528
199209032230 0.746617022160738
199209032235 0.746863374440659
199209032240 0.747104392459014
199209032245 0.747514465372801
199209032250 0.747711845060591
199209032255 0.747823698364594
199209032300 0.748080645423184
199209032305 0.748447339535833
199209032310 0.748409946481958
199209032315 0.748506814417484
199209032320 0.748596445651279
199209032325 0.748715789678984
199209032330 0.749089075184459
199209032335 0.749326605744206
199209032340 0.749590812785503
199209032345 0.749643522051716
199209032350 0.749990085639937
199209032355 0.750317242706987
199209040000 0.750606237363121
199209040005 0.750982524025254
199209040010 0.751288298742953
199209040015 0.751616658543719
199209040020 0.751900934233123
199209040025 0.752213907482588
199209040030 0.752324715659023
199209040035 0.752552319917744
199209040040 0.75251579384788
199209040045 0.752800100966225
199209040050 0.753077308154484
199209040055 0.753379123060351
199209040100 0.753640363844423
199209040105 0.753656979502241
199209040110 0.753861181966368
199209040115 0.754168062442456
199209040120 0.754296408112556
199209040125 0.754432768799131
199209040130 0.754569631662592
199209040135 0.754841004682767
199209040140 0.755044748543953
199209040145 0.75534519856485
199209040150 0.755578465411889
199209040155 0.755754809074364
199209040200 0.755961458670768
199209040205 0.756344096218095
199209040210 0.756544551664062
199209040215 0.756620664796642
199209040220 0.756611532520089
199209040225 0.756955435630927
199209040230 0.757257261950916
199209040235 0.757511899312163
199209040240 0.757896217875328
199209040245 0.758041242784031
199209040250 0.758173491429453
199209040255 0.758159467361178
199209040300 0.758322096191038
199209040305 0.758499439843382
199209040310 0.758611159288034
199209040315 0.758807449158035
199209040320 0.759121422628006
199209040325 0.759189137132817
199209040330 0.759182606656233
199209040335 0.759498611549881
199209040340 0.759758313515009
199209040345 0.759945005337022
199209040350 0.760071512252944
199209040355 0.760233973642858
199209040400 0.76040639350192
199209040405 0.760449009026377
199209040410 0.760792697147902
199209040415 0.76112915658764
199209040420 0.761426521215058
199209040425 0.761300206960098
199209040430 0.761623930512318
199209040435 0.761894167767269
199209040440 0.762180655316691
199209040445 0.762483577571311
199209040450 0.762786314117642
199209040455 0.763122049296959
199209040500 0.763316075782148
199209040505 0.763393876472033
199209040510 0.763453931245457
199209040515 0.76332028874937
199209040520 0.763519304915446
199209040525 0.763710023069728
199209040530 0.763648336073914
199209040535 0.76365587802709
199209040540 0.763744397212804
199209040545 0.764090488846826
199209040550 0.764408852826118
199209040555 0.764710597854579
199209040600 0.76476410953852
199209040605 0.765040467644478
199209040610 0.765231942050468
199209040615 0.765392470055899
199209040620 0.765043928679597
199209040625 0.765268443329032
199209040630 0.765542575238876
199209040635 0.765994893169117
199209040640 0.765901400351258
199209040645 0.766154683931656
199209040650 0.766289297480327
199209040655 0.766674133998324
199209040700 0.76677557186516
199209040705 0.767044802013315
199209040710 0.767415701428671
199209040715 0.767680268540868
199209040720 0.767920145621651
199209040725 0.768180926210284
199209040730 0.768413481058315
199209040735 0.768743913946388
199209040740 0.768869747166022
199209040745 0.769113510229884
199209040750 0.769402811681812
199209040755 0.769662102968846
199209040800 0.769783076404606
199209040805 0.770078209987343
199209040810 0.770182099492986
199209040815 0.770322759181229
199209040820 0.77061321558524
199209040825 0.770828998104881
199209040830 0.770924288816923
199209040835 0.771168541363486
199209040840 0.771451683002221
199209040845 0.771394409773074
199209040850 0.771630482183987
199209040855 0.771792899174611
199209040900 0.772221191847728
199209040905 0.772112968742091
199209040910 0.772396712296685
199209040915 0.772591178433904
199209040920 0.772811822914232
199209040925 0.772947526024887
199209040930 0.773386824490312
199209040935 0.77365232970186
199209040940 0.773812395184722
199209040945 0.774066090261114
199209040950 0.774217651690396
199209040955 0.774445099618263
199209041000 0.774322585236125
199209041005 0.774556025290795
199209041010 0.774761029093079
199209041015 0.774925662507037
199209041020 0.775050497656928
199209041025 0.775285205984767
199209041030 0.775399321520557
199209041035 0.775708162213567
199209041040 0.775948678473199
199209041045 0.776146802162654
199209041050 0.776317113400584
199209041055 0.776401064586535
199209041100 0.776539814236837
199209041105 0.776837480857994
199209041110 0.777078189252107
199209041115 0.777225481516871
199209041120 0.776958727502461
199209041125 0.77740090157965
199209041130 0.777571711810403
199209041135 0.777666604589916
199209041140 0.777805973462404
199209041145 0.778088563278131
199209041150 0.778130661779963
199209041155 0.778356609938203
199209041200 0.77854099886992
199209041205 0.778692833069618
199209041210 0.778792364988298
199209041215 0.779073883987934
199209041220 0.779153966490792
199209041225 0.779249247431888
199209041230 0.779175988521246
199209041235 0.779417515288733
199209041240 0.779232515330735
199209041245 0.779757233404509
199209041250 0.779764942764695
199209041255 0.779997736144421
199209041300 0.780230894147599
199209041305 0.780490444189646
199209041310 0.780606058810936
199209041315 0.780524623260989
199209041320 0.780869683640818
199209041325 0.781124918576241
199209041330 0.781351278946503
199209041335 0.781601162728401
199209041340 0.781818063976186
199209041345 0.782058263061421
199209041350 0.782271541482708
199209041355 0.782510099974323
199209041400 0.78271290515313
199209041405 0.782939798196229
199209041410 0.783143780661006
199209041415 0.783374918574547
199209041420 0.783564446320704
199209041425 0.783778145911671
199209041430 0.783976235012356
199209041435 0.784203419339999
199209041440 0.784377302585773
199209041445 0.784573988496536
199209041450 0.784767996314646
199209041455 0.78499290756575
199209041500 0.785139286493064
199209041505 0.785300946936701
199209041510 0.785482480451882
199209041515 0.785692204066099
199209041520 0.785689243732817
199209041525 0.785740437649936
199209041530 0.785755141337214
199209041535 0.786058909807086
199209041540 0.786267482411277
199209041545 0.786502728366154
199209041550 0.786718625757513
199209041555 0.786963841444
199209041600 0.787157541368994
199209041605 0.787377815932901
199209041610 0.787587754113859
199209041615 0.787828777620484
199209041620 0.788002776382558
199209041625 0.788200039857895
199209041630 0.788404259146608
199209041635 0.788640303065981
199209041640 0.788751044385077
199209041645 0.788813737745062
199209041650 0.788981742477185
199209041655 0.78921529296122
199209041700 0.789285337933849
199209041705 0.789541973529403
199209041710 0.789777028362668
199209041715 0.790042487739227
199209041720 0.790245296460088
199209041725 0.790466587556058
199209041730 0.790689055223897
199209041735 0.790940598381988
199209041740 0.791010091363373
199209041745 0.79118578885294
199209041750 0.791331706463464
199209041755 0.791652876165618
199209041800 0.791883424462943
199209041805 0.792139274193319
199209041810 0.792370376285261
199209041815 0.79263391479351
199209041820 0.792828752859557
199209041825 0.793025847131114
199209041830 0.793213160750108
199209041835 0.793487369501947
199209041840 0.793618616630709
199209041845 0.793860741679778
199209041850 0.794033977856175
199209041855 0.794183090703034
199209041900 0.794496454748488
199209041905 0.794771542684532
199209041910 0.794932220786014
199209041915 0.795078718806694
199209041920 0.795398291339796
199209041925 0.795668978972634
199209041930 0.795828636004284
199209041935 0.796061158625484
199209041940 0.796256630436057
199209041945 0.796558540010077
199209041950 0.796745990254512
199209041955 0.7968120614676
199209042000 0.797196939731632
199209042005 0.797294031636575
199209042010 0.79758047420208
199209042015 0.797927752898117
199209042020 0.798105744525816
199209042025 0.798348224941877
199209042030 0.798561210992008
199209042035 0.798812273261891
199209042040 0.79896898110846
199209042045 0.799216881716123
199209042050 0.799424939468191
199209042055 0.799667703703509
199209042100 0.799880310866336
199209042105 0.800130712729802
199209042110 0.800290137916914
199209042115 0.800516246457512
199209042120 0.800656299223453
199209042125 0.801047598654897
199209042130 0.801221115940001
199209042135 0.80132262585077
199209042140 0.801659273075555
199209042145 0.80184669460154
199209042150 0.802084168213511
199209042155 0.802321410673343
199209042200 0.802515867635079
199209042205 0.802766587626883
199209042210 0.802943107972505
199209042215 0.803042263797987
199209042220 0.803445237590319
199209042225 0.803676118016083
199209042230 0.803863940838413
199209042235 0.804036869216396
199209042240 0.8043595168272
199209042245 0.804478787645704
199209042250 0.804732871943969
199209042255 0.804954871567893
199209042300 0.80513158393392
199209042305 0.805381274707027
199209042310 0.805580053462222
199209042315 0.805824322715242
199209042320 0.806006924552369
199209042325 0.806233367998692
199209042330 0.806437192040927
199209042335 0.806638384754677
199209042340 0.806868135328685
199209042345 0.807091702070538
199209042350 0.807202606018091
199209042355 0.807558988060269
199209050000 0.807760795524411
199209050005 0.807966517622475
199209050010 0.808155301669964
199209050015 0.808385282728897
199209050020 0.808568047663264
199209050025 0.808785709365261
199209050030 0.808948070151473
199209050035 0.809069611192962
199209050040 0.809509283790706
199209050045 0.809645753737958
199209050050 0.809895910915124
199209050055 0.810112414516677
199209050100 0.810246259086447
199209050105 0.810404129511903
199209050110 0.810612164103171
199209050115 0.810946655638435
199209050120 0.811140083202212
199209050125 0.811336227989227
199209050130 0.811505854293771
199209050135 0.811684478639439
199209050140 0.811886242927244
199209050145 0.812176072660699
199209050150 0.812320641486688
199209050155 0.812511878663804
199209050200 0.812662567054182
199209050205 0.812936459620536
199209050210 0.813119806825752
199209050215 0.813338295272934
199209050220 0.813506074619018
199209050225 0.813769454913121
199209050230 0.813922014302382
199209050235 0.814095980783741
199209050240 0.814397708488342
199209050245 0.814611013348007
199209050250 0.814740744447709
199209050255 0.815056568132578
199209050300 0.815244243748137
199209050305 0.815531956864186
199209050310 0.815686027645476
199209050315 0.815878621421038
199209050320 0.816059330318905
199209050325 0.816205595686044
199209050330 0.816520710862484
199209050335 0.816673086547268
199209050340 0.816833145263265
199209050345 0.817154602107404
199209050350 0.817442028905488
199209050355 0.817577970008434
199209050400 0.81785816798841
199209050405 0.817990862922089
199209050410 0.818250896257723
199209050415 0.818394382993287
199209050420 0.818465339648729
199209050425 0.818908252434184
199209050430 0.819186820298014
199209050435 0.819288796233614
199209050440 0.819398918687223
199209050445 0.819553298186002
199209050450 0.819710107521983
199209050455 0.819865300546285
199209050500 0.820135937274767
199209050505 0.820299330954403
199209050510 0.820507435934867
199209050515 0.820689050835046
199209050520 0.820961926775951
199209050525 0.821116039118334
199209050530 0.82132439527774
199209050535 0.821500755045876
199209050540 0.821878879267125
199209050545 0.822187588472277
199209050550 0.822228044435615
199209050555 0.822355843117242
199209050600 0.822489644914982
199209050605 0.822616710650845
199209050610 0.822955051092655
199209050615 0.823331469557423
199209050620 0.823499452090482
199209050625 0.823568410471586
199209050630 0.823742508988134
199209050635 0.823881516945861
199209050640 0.82400389364352
199209050645 0.824205037745952
199209050650 0.824620655669037
199209050655 0.825037709504298
199209050700 0.825233919102115
199209050705 0.825278038308189
199209050710 0.825343050179559
199209050715 0.825482800879933
199209050720 0.825740186431023
199209050725 0.825999910670655
199209050730 0.826083160967643
199209050735 0.826344317569722
199209050740 0.826513000021278
199209050745 0.826657627372562
199209050750 0.827001812140545
199209050755 0.827337199240348
199209050800 0.827401844595685
199209050805 0.82759352845847
199209050810 0.827672483474175
199209050815 0.827935554165127
199209050820 0.828265880181394
199209050825 0.828507930054495
199209050830 0.828494002985507
199209050835 0.828706029541405
199209050840 0.828945504054014
199209050845 0.829096756496888
199209050850 0.829180724399879
199209050855 0.829352029230312
199209050900 0.829557052943153
199209050905 0.829899179962546
199209050910 0.830225524567062
199209050915 0.830465743281498
199209050920 0.830446350023663
199209050925 0.830565926634912
199209050930 0.830677901438088
199209050935 0.830995811808598
199209050940 0.831362864190135
199209050945 0.831695398646476
199209050950 0.831700660444673
199209050955 0.831921921225674
199209051000 0.832211916765576
199209051005 0.832342912830376
199209051010 0.832346949830927
199209051015 0.832410612070041
199209051020 0.832642265038034
199209051025 0.833041190937433
199209051030 0.833407220862958
199209051035 0.833677467125093
199209051040 0.833587919205681
199209051045 0.833877788562039
199209051050 0.834012516738981
199209051055 0.834071939734645
199209051100 0.834296954822657
199209051105 0.834559322225635
199209051110 0.834725685813705
199209051115 0.834773407184712
199209051120 0.83492955577294
199209051125 0.83525049676316
199209051130 0.835598121737407
199209051135 0.835908076734701
199209051140 0.835919931333154
199209051145 0.836089667724886
199209051150 0.83630559432128
199209051155 0.83642669166346
199209051200 0.836515099601047
199209051205 0.836871296396571
199209051210 0.837185829327569
199209051215 0.837406511056976
199209051220 0.837343397642259
199209051225 0.837504838608104
199209051230 0.837596281461377
199209051235 0.837768707819864
199209051240 0.838079203720767
199209051245 0.838463166159242
199209051250 0.838763508652872
199209051255 0.838919153389463
199209051300 0.838900618376013
199209051305 0.839090951817262
199209051310 0.839126089220444
199209051315 0.839286810943488
199209051320 0.839614129820869
199209051325 0.839993773150008
199209051330 0.840277342360462
199209051335 0.840396473181336
199209051340 0.840386190825257
199209051345 0.840686233205657
199209051350 0.840891123399293
199209051355 0.840922180151059
199209051400 0.840921787597249
199209051405 0.841119447589497
199209051410 0.841514952142054
199209051415 0.841931746941922
199209051420 0.842242183227506
199209051425 0.842386098513064
199209051430 0.842307070472882
199209051435 0.842388092696047
199209051440 0.842472083218645
199209051445 0.842879144988801
199209051450 0.843248047589875
199209051455 0.84354369695395
199209051500 0.843462715668479
199209051505 0.843607903075309
199209051510 0.843864629962663
199209051515 0.844057082664741
199209051520 0.844001552034719
199209051525 0.8441813238884
199209051530 0.844425421168207
199209051535 0.844734995712128
199209051540 0.844981691587852
199209051545 0.845144172093882
199209051550 0.845056803926809
199209051555 0.845352352729625
199209051600 0.845678749250084
199209051605 0.845986742726904
199209051610 0.846127056315803
199209051615 0.846088702830773
199209051620 0.846127318887772
199209051625 0.846465624959624
199209051630 0.846820523611573
199209051635 0.847142562668659
199209051640 0.847283787963495
199209051645 0.847226622621847
199209051650 0.847221599777519
199209051655 0.847488181565559
199209051700 0.847829025734898
199209051705 0.848173174003844
199209051710 0.84839606361877
199209051715 0.848421413845098
199209051720 0.848336437411936
199209051725 0.848385899264689
199209051730 0.848756256886307
199209051735 0.849196964412301
199209051740 0.849568475077412
199209051745 0.849859935634479
199209051750 0.849826179223661
199209051755 0.849745352457411
199209051800 0.849673619789462
199209051805 0.849797854635883
199209051810 0.850219486887588
199209051815 0.850677607512311
199209051820 0.851059359440695
199209051825 0.851361563324023
199209051830 0.851366827725787
199209051835 0.851189878342785
199209051840 0.851170721219401
199209051845 0.851252247406316
199209051850 0.851620220163633
199209051855 0.852063903504594
199209051900 0.852442773063895
199209051905 0.852751156717803
199209051910 0.852813609005352
199209051915 0.852669444264646
199209051920 0.852815003408204
199209051925 0.852980981758169
199209051930 0.853117420039943
199209051935 0.853315998507539
199209051940 0.853528713008198
199209051945 0.853780906280435
199209051950 0.853976064499768
199209051955 0.854135236048341
199209052000 0.854145437529336
199209052005 0.854138743347039
199209052010 0.854421551026149
199209052015 0.854848416758537
199209052020 0.855233163387203
199209052025 0.855563695914469
199209052030 0.855719328243174
199209052035 0.855504850312355
199209052040 0.855628238087101
199209052045 0.855815714760572
199209052050 0.856015142333476
199209052055 0.856258435431203
199209052100 0.856455173916319
199209052105 0.856630886423083
199209052110 0.856691176370708
199209052115 0.856730559220349
199209052120 0.85686593119004
199209052125 0.857219868836981
199209052130 0.857589186795532
199209052135 0.857931263979688
199209052140 0.858148165105854
199209052145 0.858191673187049
199209052150 0.858078226455924
199209052155 0.858322704654766
199209052200 0.858568956927471
199209052205 0.858815299098577
199209052210 0.858957360830611
199209052215 0.859011399676379
199209052220 0.858900802810448
199209052225 0.859206030129444
199209052230 0.859607106165332
199209052235 0.859996504778601
199209052240 0.860294006573978
199209052245 0.860494570014155
199209052250 0.86032343250665
199209052255 0.860314683994891
199209052300 0.860436857759426
199209052305 0.860719437490755
199209052310 0.861030030009792
199209052315 0.86133547491968
199209052320 0.861535386852408
199209052325 0.861619567475875
199209052330 0.861438607729488
199209052335 0.861664122746481
199209052340 0.861995764609596
199209052345 0.862347163148373
199209052350 0.862620313973568
199209052355 0.862815371750721
199209060000 0.862702484916257
199209060005 0.862710202125371
199209060010 0.862894385047701
199209060015 0.863205428685427
199209060020 0.863507292819702
199209060025 0.863786454310021
199209060030 0.863939289319186
199209060035 0.863943739597567
199209060040 0.863870321827898
199209060045 0.864171258741112
199209060050 0.864500467903409
199209060055 0.864818818382209
199209060100 0.865034778317453
199209060105 0.865141900253136
199209060110 0.864939620061569
199209060115 0.865127988029481
199209060120 0.865412938721959
199209060125 0.865737010469426
199209060130 0.865998209766042
199209060135 0.866202880833563
199209060140 0.866204390512274
199209060145 0.86609498345741
199209060150 0.866306406014193
199209060155 0.866646976885158
199209060200 0.866967793093966
199209060205 0.86725818308153
199209060210 0.867422159419004
199209060215 0.867434758618543
199209060220 0.867290920220045
199209060225 0.86746987851724
199209060230 0.867776863387491
199209060235 0.868123702644414
199209060240 0.868409994992502
199209060245 0.868642596656918
199209060250 0.868690493182538
199209060255 0.868506550440658
199209060300 0.868554714676171
199209060305 0.868873091782484
199209060310 0.86924223255067
199209060315 0.869597915922147
199209060320 0.869867409989675
199209060325 0.870057228199018
199209060330 0.869955305832376
199209060335 0.869731187131903
199209060340 0.869951376484968
199209060345 0.870340793784987
199209060350 0.870706430160784
199209060355 0.871036403329347
199209060400 0.871258487393281
199209060405 0.87136315546861
199209060410 0.87110915058785
199209060415 0.87118751964875
199209060420 0.871391948308401
199209060425 0.871708254104092
199209060430 0.872006258209408
199209060435 0.872280953841094
199209060440 0.872443442213473
199209060445 0.872496109287951
199209060450 0.872276386966762
199209060455 0.872535322200094
199209060500 0.872879680841123
199209060505 0.873228011832686
199209060510 0.873502452695397
199209060515 0.873714968891926
199209060520 0.873723844370286
199209060525 0.87354656090472
199209060530 0.873396880348357
199209060535 0.873688069158179
199209060540 0.874144299322793
199209060545 0.874571482098725
199209060550 0.874926593781321
199209060555 0.87522995171328
199209060600 0.875405887286359
199209060605 0.875398084986545
199209060610 0.875117129000695
199209060615 0.875017292347034
199209060620 0.875146860432125
199209060625 0.875565353676709
199209060630 0.875971089937633
199209060635 0.876339399109326
199209060640 0.876624333407728
199209060645 0.876839390360786
199209060650 0.876821450969101
199209060655 0.876589451072839
199209060700 0.876680469617516
199209060705 0.876913728076671
199209060710 0.877184202010838
199209060715 0.877469563298445
199209060720 0.877687320616355
199209060725 0.877858193363494
199209060730 0.877872872906328
199209060735 0.877762246834081
199209060740 0.87772684247303
199209060745 0.878109908531553
199209060750 0.878523424561114
199209060755 0.878904972112559
199209060800 0.879211182208124
199209060805 0.879460810995018
199209060810 0.879545184803567
199209060815 0.879301517978034
199209060820 0.879217633781127
199209060825 0.879323292650035
199209060830 0.879640207688389
199209060835 0.880010465005465
199209060840 0.880331363423218
199209060845 0.880613394539231
199209060850 0.88078123054466
199209060855 0.880829514612557
199209060900 0.880547219747276
199209060905 0.880725963691597
199209060910 0.88101715887833
199209060915 0.881342733511336
199209060920 0.881614979914181
199209060925 0.88184878787367
199209060930 0.881953295615794
199209060935 0.881929997405911
199209060940 0.881690563480508
199209060945 0.881861256356109
199209060950 0.882249227444901
199209060955 0.882645392245329
199209061000 0.88297986643122
199209061005 0.883270576897925
199209061010 0.8834517154472
199209061015 0.883514750020607
199209061020 0.883217273216714
199209061025 0.883232611547858
199209061030 0.883443137155907
199209061035 0.883782281976799
199209061040 0.88410235793778
199209061045 0.884398449781306
199209061050 0.884605835645631
199209061055 0.884741120184567
199209061100 0.884643429842296
199209061105 0.884457036238757
199209061110 0.884800592719146
199209061115 0.885176342278697
199209061120 0.885497528800678
199209061125 0.885779084607913
199209061130 0.885954457671773
199209061135 0.886024683187373
199209061140 0.885759107529601
199209061145 0.88561255423266
199209061150 0.885858584840232
199209061155 0.88627925400118
199209061200 0.886661923458221
199209061205 0.887005527953978
199209061210 0.887271957687743
199209061215 0.887480461395774
199209061220 0.887509755203607
199209061225 0.887118222259084
199209061230 0.887305409894461
199209061235 0.887607316487936
199209061240 0.88789384200147
199209061245 0.888163639453807
199209061250 0.8883481825657
199209061255 0.888471211461381
199209061300 0.888409932473696
199209061305 0.888152446537015
199209061310 0.888422286164639
199209061315 0.88882838936026
199209061320 0.88919491101289
199209061325 0.889524334903987
199209061330 0.889775658460242
199209061335 0.889968172537261
199209061340 0.889976066543975
199209061345 0.889568853725475
199209061350 0.889795246269914
199209061355 0.890127620618182
199209061400 0.89043320407623
199209061405 0.890713983343252
199209061410 0.890908296548658
199209061415 0.891036765871104
199209061420 0.890960930948408
199209061425 0.89075601732381
199209061430 0.89083562460172
199209061435 0.891212683572054
199209061440 0.891591138092088
199209061445 0.891939153608604
199209061450 0.892217459607086
199209061455 0.89244915234889
199209061500 0.892550129393667
199209061505 0.89249294902549
199209061510 0.892181244871707
199209061515 0.892114352509291
199209061520 0.892490625964899
199209061525 0.892918592400816
199209061530 0.893288555660757
199209061535 0.893616415839747
199209061540 0.893870988858306
199209061545 0.894072999661525
199209061550 0.894113799359535
199209061555 0.893868497662797
199209061600 0.893629262335116
199209061605 0.893795210860861
199209061610 0.894178258024303
199209061615 0.894563241344747
199209061620 0.894888998045385
199209061625 0.895176072648632
199209061630 0.8953765346471
199209061635 0.895505018419236
199209061640 0.895386970466339
199209061645 0.895121119508598
199209061650 0.895413134105793
199209061655 0.895752850968415
199209061700 0.896047880776459
199209061705 0.896312478421444
199209061710 0.896487589321621
199209061715 0.896594060032349
199209061720 0.896488740747122
199209061725 0.896284115648874
199209061730 0.896442372484419
199209061735 0.896806339965827
199209061740 0.89715682443326
199209061745 0.897479424317464
199209061750 0.89773271513523
199209061755 0.897941006427465
199209061800 0.898018334254409
199209061805 0.897952960085704
199209061810 0.897633051637941
199209061815 0.897706849015853
199209061820 0.898089723653803
199209061825 0.898485989891521
199209061830 0.898824319540633
199209061835 0.899124184807326
199209061840 0.899348588487899
199209061845 0.899518258206745
199209061850 0.899514174119101
199209061855 0.899201742793491
199209061900 0.899227881677957
199209061905 0.899486303221132
199209061910 0.899794548621136
199209061915 0.900103273268259
199209061920 0.900353696556748
199209061925 0.900569936511091
199209061930 0.900680895277695
199209061935 0.900710752790201
199209061940 0.90052614219986
199209061945 0.90039519272688
199209061950 0.900740198316016
199209061955 0.901140826994768
199209062000 0.901488757661975
199209062005 0.901798674199125
199209062010 0.902038766167597
199209062015 0.902232803279078
199209062020 0.902289846485277
199209062025 0.902177291188301
199209062030 0.901928572849138
199209062035 0.902112586500675
199209062040 0.902417354497756
199209062045 0.902741767103001
199209062050 0.903016315912681
199209062055 0.90326124849809
199209062100 0.90341908700786
199209062105 0.903515343370396
199209062110 0.903429492696126
199209062115 0.903204043275391
199209062120 0.903287670328891
199209062125 0.903667486299347
199209062130 0.904037601037152
199209062135 0.904374142979394
199209062140 0.904646951528463
199209062145 0.904881882771448
199209062150 0.905020179261209
199209062155 0.905071396068854
199209062200 0.904805511201889
199209062205 0.904719781796375
199209062210 0.90494944854341
199209062215 0.9052853994244
199209062220 0.905593887501585
199209062225 0.905878183663678
199209062230 0.906093343998993
199209062235 0.90626647108326
199209062240 0.906311930778365
199209062245 0.906249283818341
199209062250 0.905978844428485
199209062255 0.906112323358556
199209062300 0.906484943674519
199209062305 0.906859469720764
199209062310 0.90717697423898
199209062315 0.907458764789535
199209062320 0.907669142991702
199209062325 0.907831906106061
199209062330 0.907846533250661
199209062335 0.907684180483963
199209062340 0.907506325015323
199209062345 0.907833223315086
199209062350 0.908162966044819
199209062355 0.908471370534687
199209070000 0.908717631215457
199209070005 0.9089282666262
199209070010 0.909037805923404
199209070015 0.909065817883871
199209070020 0.90885524910238
199209070025 0.908676563869809
199209070030 0.908976592074779
199209070035 0.909367787826576
199209070040 0.909711574746885
199209070045 0.910018650051326
199209070050 0.910261504628782
199209070055 0.910466357756153
199209070100 0.910565446218249
199209070105 0.910563831105566
199209070110 0.910237002993384
199209070115 0.910216905644976
199209070120 0.910524346354338
199209070125 0.910880455643219
199209070130 0.91119081650064
199209070135 0.911470197880473
199209070140 0.911681242923672
199209070145 0.91185079149786
199209070150 0.911894759510852
199209070155 0.911823982455718
199209070200 0.911525235144256
199209070205 0.911705716462998
199209070210 0.912051145611663
199209070215 0.912398511990325
199209070220 0.912691699028191
199209070225 0.912952732477347
199209070230 0.913141366440497
199209070235 0.913283445831255
199209070240 0.913280539279115
199209070245 0.913138341552859
199209070250 0.912916997032501
199209070255 0.913163639864887
199209070300 0.913522079794529
199209070305 0.913866750498332
199209070310 0.914154327916966
199209070315 0.914409026204691
199209070320 0.914590763879178
199209070325 0.91472459151312
199209070330 0.914707394188891
199209070335 0.914538037867575
199209070340 0.914376294584614
199209070345 0.914679707381899
199209070350 0.915020775670374
199209070355 0.915342330984844
199209070400 0.915606022960395
199209070405 0.915837861822113
199209070410 0.915989507478608
199209070415 0.916085922437112
199209070420 0.916011021361405
199209070425 0.915788234751081
199209070430 0.915651015245595
199209070435 0.916015149211298
199209070440 0.916410128434771
199209070445 0.916763450624835
199209070450 0.917055520102205
199209070455 0.917312731458244
199209070500 0.917503687599014
199209070505 0.917651533770128
199209070510 0.917659618820907
199209070515 0.917502263096605
199209070520 0.917269667889736
199209070525 0.917503838465013
199209070530 0.917815443339819
199209070535 0.918125920065958
199209070540 0.918383916344494
199209070545 0.918613847732215
199209070550 0.918767643422018
199209070555 0.918875033175989
199209070600 0.918841411165373
199209070605 0.918729736924568
199209070610 0.918639598603972
199209070615 0.918882806551244
199209070620 0.919211038459068
199209070625 0.919532075708866
199209070630 0.919799126876992
199209070635 0.920036706765375
199209070640 0.920201511847407
199209070645 0.920321852627304
199209070650 0.920303951849793
199209070655 0.920187429223547
199209070700 0.919994004229907
199209070705 0.920201814437327
199209070710 0.920557848031754
199209070715 0.920902399180384
199209070720 0.921190784159727
199209070725 0.921446844389743
199209070730 0.921636889655106
199209070735 0.92178795785799
199209070740 0.921817620409526
199209070745 0.921740735589188
199209070750 0.921435683705652
199209070755 0.921506711151772
199209070800 0.921866286381568
199209070805 0.922231064426337
199209070810 0.922539622080317
199209070815 0.922813295849923
199209070820 0.923025590752512
199209070825 0.923203685971913
199209070830 0.923281444338396
199209070835 0.92327398064574
199209070840 0.923003286873022
199209070845 0.922899745078371
199209070850 0.923183038617627
199209070855 0.923541610356971
199209070900 0.923855857510944
199209070905 0.924137645474321
199209070910 0.924359078674435
199209070915 0.924548317394224
199209070920 0.924646695265703
199209070925 0.924677077908203
199209070930 0.924507664064003
199209070935 0.92421994732809
199209070940 0.924439467444594
199209070945 0.924833299712469
199209070950 0.925181217873919
199209070955 0.925488498822363
199209071000 0.925737364539469
199209071005 0.925955037372092
199209071010 0.926099697004469
199209071015 0.926193389541038
199209071020 0.926116979158066
199209071025 0.925843727692666
199209071030 0.92578215631897
199209071035 0.926089663619364
199209071040 0.926433376800823
199209071045 0.926751699866532
199209071050 0.92701293813541
199209071055 0.927243665658395
199209071100 0.927405083410993
199209071105 0.927524536404067
199209071110 0.927510139454011
199209071115 0.927390469911102
199209071120 0.927119777593411
199209071125 0.927276836926983
199209071130 0.927659405628692
199209071135 0.928020293172807
199209071140 0.928320937742794
199209071145 0.928585919152122
199209071150 0.928791845842246
199209071155 0.928965542864046
199209071200 0.929044231242939
199209071205 0.929043083648157
199209071210 0.928789201343038
199209071215 0.928567095671085
199209071220 0.928822018718916
199209071225 0.92920886717241
199209071230 0.929546326410543
199209071235 0.929843899365788
199209071240 0.930083664778153
199209071245 0.93029310130502
199209071250 0.930429615046296
199209071255 0.930516141078248
199209071300 0.930436803305412
199209071305 0.930191237279776
199209071310 0.929989000949609
199209071315 0.930324150982073
199209071320 0.930715332530423
199209071325 0.931061192857922
199209071330 0.931345775885216
199209071335 0.931595934721693
199209071340 0.931788160097804
199209071345 0.931948081467098
199209071350 0.932007499461294
199209071355 0.931976013782972
199209071400 0.931624625264277
199209071405 0.931670899282991
199209071410 0.93199360924248
199209071415 0.932321275661343
199209071420 0.932596983446677
199209071425 0.932842931669519
199209071430 0.933026448505534
199209071435 0.933176912891551
199209071440 0.933224540705811
199209071445 0.933200636530008
199209071450 0.933019934272489
199209071455 0.932986917968899
199209071500 0.933237792472043
199209071505 0.933565157620049
199209071510 0.933854548259482
199209071515 0.934116685973126
199209071520 0.934320040484317
199209071525 0.934494368632796
199209071530 0.934582625293783
199209071535 0.934617423255896
199209071540 0.934507978045479
199209071545 0.934417815511426
199209071550 0.934531586191042
199209071555 0.934820039349711
199209071600 0.935105832456829
199209071605 0.935375095036087
199209071610 0.93558970319114
199209071615 0.935778805154882
199209071620 0.935892196320222
199209071625 0.935965568585959
199209071630 0.93592078597985
199209071635 0.935866635957871
199209071640 0.935895527465492
199209071645 0.93611519443906
199209071650 0.93637338924341
199209071655 0.936635656406689
199209071700 0.93685072763708
199209071705 0.937045755937658
199209071710 0.937172661715421
199209071715 0.937270097091891
199209071720 0.937272300328864
199209071725 0.937264478374292
199209071730 0.937275075235206
199209071735 0.937439982713262
199209071740 0.937661601066616
199209071745 0.937908389139576
199209071750 0.938117586147395
199209071755 0.938313713073546
199209071800 0.938448595206099
199209071805 0.938562410643842
199209071810 0.938596967789758
199209071815 0.938630238396088
199209071820 0.938656867034863
199209071825 0.938790424896541
199209071830 0.938970881992933
199209071835 0.93919176529361
199209071840 0.939385441921818
199209071845 0.939575554020186
199209071850 0.939712101695059
199209071855 0.939836748426723
199209071900 0.939896870441819
199209071905 0.939963199104043
199209071910 0.940012243191064
199209071915 0.940135690203412
199209071920 0.940286973830959
199209071925 0.940483267238595
199209071930 0.940659386846896
199209071935 0.940840929522128
199209071940 0.940976419263525
199209071945 0.941108326666188
199209071950 0.941186966128172
199209071955 0.94127587926989
199209072000 0.941338109370795
199209072005 0.941456684944032
199209072010 0.941592982941206
199209072015 0.941776644817924
199209072020 0.941943641020828
199209072025 0.942120577835113
199209072030 0.942255419274104
199209072035 0.94239044910385
199209072040 0.942476985279868
199209072045 0.942578920083776
199209072050 0.942654263538301
199209072055 0.942773129978973
199209072100 0.942894845736831
199209072105 0.943060130951944
199209072110 0.94321157264107
199209072115 0.943380582131365
199209072120 0.943514838592974
199209072125 0.943656643134689
199209072130 0.943760542094038
199209072135 0.943879291444057
199209072140 0.943968281580149
199209072145 0.944088638264687
199209072150 0.944200217428114
199209072155 0.944351466902391
199209072200 0.944488158342428
199209072205 0.944646755154457
199209072210 0.944775442226752
199209072215 0.944917257547912
199209072220 0.945021849122056
199209072225 0.945140729928018
199209072230 0.945233498026693
199209072235 0.945360625011532
199209072240 0.945477808995701
199209072245 0.945630337961591
199209072250 0.945768363543168
199209072255 0.945927804297352
199209072300 0.946059091540221
199209072305 0.946202366311322
199209072310 0.94630773660402
199209072315 0.946426973934895
199209072320 0.946514000564296
199209072325 0.946628635783295
199209072330 0.946732870720154
199209072335 0.946878985398007
199209072340 0.947011735501503
199209072345 0.947169875527348
199209072350 0.947302552509687
199209072355 0.947450762738658
199209080000 0.947567804592623
199209080005 0.947701557609825
199209080010 0.947803789640966
199209080015 0.947927327850482
199209080020 0.948027843502697
199209080025 0.948159271970855
199209080030 0.948275242941073
199209080035 0.948421196735165
199209080040 0.948546933273612
199209080045 0.948694302113342
199209080050 0.948813854714937
199209080055 0.948952480612545
199209080100 0.949064500083985
199209080105 0.949196625389955
199209080110 0.949304234351533
199209080115 0.949436755234246
199209080120 0.949542136017001
199209080125 0.949675982601675
199209080130 0.949792110201907
199209080135 0.949934486237482
199209080140 0.950053164460264
199209080145 0.950189999378184
199209080150 0.950297144619059
199209080155 0.950424980008948
199209080200 0.950526452343341
199209080205 0.950657489043993
199209080210 0.95076989109018
199209080215 0.950911723736966
199209080220 0.951031974540791
199209080225 0.951176415113677
199209080230 0.951293607094677
199209080235 0.951432715473247
199209080240 0.951550440411589
199209080245 0.951690941258729
199209080250 0.951804830423087
199209080255 0.951938506321561
199209080300 0.952044940413784
199209080305 0.952171545125747
199209080310 0.95227202976118
199209080315 0.952398530393082
199209080320 0.952509478319204
199209080325 0.952655281764623
199209080330 0.9527833842064
199209080335 0.952929032649953
199209080340 0.953044825278231
199209080345 0.953180850688692
199209080350 0.95329027762468
199209080355 0.953419920438465
199209080400 0.953523067009329
199209080405 0.953650794327553
199209080410 0.953757408332719
199209080415 0.953893436143652
199209080420 0.954012710299217
199209080425 0.95415609323553
199209080430 0.954271231385783
199209080435 0.954401695935885
199209080440 0.954503080102633
199209080445 0.95462510278505
199209080450 0.954726179117106
199209080455 0.954861141368826
199209080500 0.95498408579243
199209080505 0.955133784979047
199209080510 0.955261806304506
199209080515 0.955406779507876
199209080520 0.955521802228276
199209080525 0.955649777962052
199209080530 0.955738865704006
199209080535 0.955848774835906
199209080540 0.95593746735161
199209080545 0.956061439554059
199209080550 0.956178240583494
199209080555 0.956330060639478
199209080600 0.95646513964503
199209080605 0.956621311662305
199209080610 0.956744149265978
199209080615 0.956873650112834
199209080620 0.956960150255437
199209080625 0.957064853649575
199209080630 0.957153316660172
199209080635 0.957284502767062
199209080640 0.957406419677541
199209080645 0.957555749846117
199209080650 0.957685007942685
199209080655 0.957832821586355
199209080700 0.957944859230595
199209080705 0.958071858277947
199209080710 0.958171191477128
199209080715 0.958293381287962
199209080720 0.95839241024645
199209080725 0.958516089948548
199209080730 0.958621503303785
199209080735 0.958758395915357
199209080740 0.958879340132383
199209080745 0.959027595452442
199209080750 0.959146912825435
199209080755 0.959280720987953
199209080800 0.959385580344634
199209080805 0.959512165321225
199209080810 0.959608145185289
199209080815 0.959727910222758
199209080820 0.9598289557131
199209080825 0.959958956926367
199209080830 0.96007052771231
199209080835 0.960210942475024
199209080840 0.960332449465934
199209080845 0.960478328968835
199209080850 0.960599713989292
199209080855 0.960737736112832
199209080900 0.960840112362568
199209080905 0.960954155612
199209080910 0.96103907736976
199209080915 0.961154770075438
199209080920 0.961261329507119
199209080925 0.961404961937059
199209080930 0.961532190170292
199209080935 0.961679748815366
199209080940 0.961794287965025
199209080945 0.96192090050161
199209080950 0.962013993296893
199209080955 0.962132539893658
199209081000 0.962232272744175
199209081005 0.96236267690295
199209081010 0.962477319333913
199209081015 0.962622662255331
199209081020 0.962748108395463
199209081025 0.962889298318079
199209081030 0.962995749937857
199209081035 0.963111005694452
199209081040 0.963187636117985
199209081045 0.963295755520916
199209081050 0.963400808587801
199209081055 0.963546026498748
199209081100 0.963670526033042
199209081105 0.963812330488666
199209081110 0.963929279113132
199209081115 0.964065991523229
199209081120 0.964175208396067
199209081125 0.964294913834914
199209081130 0.964377732451722
199209081135 0.964487393130986
199209081140 0.964587288159866
199209081145 0.964725822222386
199209081150 0.964847880771469
199209081155 0.964995583284173
199209081200 0.96511115876902
199209081205 0.965239239799232
199209081210 0.965341178854455
199209081215 0.965466117537204
199209081220 0.965567184379175
199209081225 0.965692070436111
199209081230 0.965792664671125
199209081235 0.965920559209966
199209081240 0.966027334016538
199209081245 0.966157767039524
199209081250 0.966269047170253
199209081255 0.96640505068873
199209081300 0.966516190538867
199209081305 0.966650621468274
199209081310 0.96676043128324
199209081315 0.966888949457894
199209081320 0.966988224191843
199209081325 0.967112665591296
199209081330 0.967215328473782
199209081335 0.967344947014723
199209081340 0.967453590407879
199209081345 0.967581519114116
199209081350 0.967681951272813
199209081355 0.967803541657262
199209081400 0.967903836316761
199209081405 0.96802997909817
199209081410 0.968139526302822
199209081415 0.968275974509339
199209081420 0.96838960538169
199209081425 0.968526360089425
199209081430 0.968637705741071
199209081435 0.968766208401873
199209081440 0.968859718560699
199209081445 0.968969679679896
199209081450 0.969057542635011
199209081455 0.969175349959461
199209081500 0.969279353900037
199209081505 0.969414900021386
199209081510 0.969533288244359
199209081515 0.96967329163424
199209081520 0.969791998564461
199209081525 0.969931752421624
199209081530 0.970037677863367
199209081535 0.970153971518419
199209081540 0.970234900563104
199209081545 0.970340804316611
199209081550 0.97043903232522
199209081555 0.970579330307439
199209081600 0.97071086147275
199209081605 0.970864982317795
199209081610 0.970990763354243
199209081615 0.97111967932407
199209081620 0.971203842121772
199209081625 0.971305246856638
199209081630 0.971383216628391
199209081635 0.971496364180692
199209081640 0.971594736771034
199209081645 0.971727903822991
199209081650 0.97184796253565
199209081655 0.97198976733198
199209081700 0.972104794248507
199209081705 0.972240624052008
199209081710 0.972352079669537
199209081715 0.972480097578168
199209081720 0.972570624421018
199209081725 0.972674821892395
199209081730 0.972753729732508
199209081735 0.972872123401805
199209081740 0.972982845676366
199209081745 0.973123094625308
199209081750 0.973247389931526
199209081755 0.973391161958246
199209081800 0.973502084499907
199209081805 0.97362267247748
199209081810 0.973714753582268
199209081815 0.973829173118855
199209081820 0.973921051566603
199209081825 0.974044446864839
199209081830 0.974152325506849
199209081835 0.974285391785355
199209081840 0.974397439517768
199209081845 0.974530847386353
199209081850 0.974639018267549
199209081855 0.97476187597117
199209081900 0.974848355529738
199209081905 0.974955464895335
199209081910 0.975042558247209
199209081915 0.975163652368878
199209081920 0.975275078158654
199209081925 0.975417093048537
199209081930 0.975536560189959
199209081935 0.975671564933132
199209081940 0.975774038356294
199209081945 0.975891055096439
199209081950 0.975975049875721
199209081955 0.976079646876595
199209082000 0.976167245676154
199209082005 0.97629106103089
199209082010 0.976400354527594
199209082015 0.976539121618205
199209082020 0.976657624134455
199209082025 0.976796508308386
199209082030 0.976908734049112
199209082035 0.977035011217877
199209082040 0.977127955872792
199209082045 0.977238297397601
199209082050 0.977322236126857
199209082055 0.977431380097972
199209082100 0.977525099919615
199209082105 0.977650751704938
199209082110 0.977762952844214
199209082115 0.977902973335718
199209082120 0.978020473024105
199209082125 0.978157119074039
199209082130 0.978266947188649
199209082135 0.978390684822718
199209082140 0.978478466118454
199209082145 0.978581272407733
199209082150 0.978664267193496
199209082155 0.978784624370759
199209082200 0.978893400446135
199209082205 0.979030523411997
199209082210 0.97914512681318
199209082215 0.979277486067513
199209082220 0.979378815042181
199209082225 0.979492716666245
199209082230 0.979577367064069
199209082235 0.979689769530036
199209082240 0.979783941663834
199209082245 0.979907197720976
199209082250 0.980015613371757
199209082255 0.980152352836817
199209082300 0.980270648483424
199209082305 0.980406097876565
199209082310 0.980504308380721
199209082315 0.980617136635314
199209082320 0.980701098509127
199209082325 0.980807249483645
199209082330 0.980897321807291
199209082335 0.981024519966503
199209082340 0.981135079676069
199209082345 0.981271549499485
199209082350 0.981383326831418
199209082355 0.981511349199514
199209090000 0.981612168843908
199209090005 0.981736101425032
199209090010 0.981834935382894
199209090015 0.981955210561975
199209090020 0.982046202549335
199209090025 0.982161101804353
199209090030 0.982256873148289
199209090035 0.982382425630369
199209090040 0.982489949286137
199209090045 0.982623387782822
199209090050 0.982735247861369
199209090055 0.982864529890854
199209090100 0.982962460837369
199209090105 0.983077085344307
199209090110 0.983164081063603
199209090115 0.983279911840847
199209090120 0.983379086823543
199209090125 0.983505633772788
199209090130 0.983610484732678
199209090135 0.983733471914694
199209090140 0.983826610256916
199209090145 0.983939574392739
199209090150 0.984032366639664
199209090155 0.984157179953701
199209090200 0.984266498453167
199209090205 0.984400175350544
199209090210 0.984504694007973
199209090215 0.984628433328215
199209090220 0.984723550149631
199209090225 0.984838458774095
199209090230 0.984931581510752
199209090235 0.98505396924395
199209090240 0.98515865092459
199209090245 0.985289103517842
199209090250 0.985396198096937
199209090255 0.985520565666549
199209090300 0.985614938322096
199209090305 0.985730097869488
199209090310 0.985818405280248
199209090315 0.985935786474885
199209090320 0.986038395255615
199209090325 0.986172492853767
199209090330 0.986285560443747
199209090335 0.986416682478873
199209090340 0.986517026345115
199209090345 0.986633553472635
199209090350 0.986720647210369
199209090355 0.98683182626712
199209090400 0.986923247133997
199209090405 0.987045475005754
199209090410 0.987150689910088
199209090415 0.98728222027952
199209090420 0.987393442396766
199209090425 0.987522511119773
199209090430 0.987615108776255
199209090435 0.98772573029722
199209090440 0.987812113638074
199209090445 0.987929051685677
199209090450 0.988034398868341
199209090455 0.98816851827062
199209090500 0.988279026584214
199209090505 0.988406911300905
199209090510 0.988503842545311
199209090515 0.988617081241619
199209090520 0.988697511586589
199209090525 0.988806398457754
199209090530 0.988901975535963
199209090535 0.989032148976212
199209090540 0.989145988487726
199209090545 0.9892820612433
199209090550 0.989389768241817
199209090555 0.989512760322876
199209090600 0.989603707091265
199209090605 0.989714775851199
199209090610 0.989796131671056
199209090615 0.989907883529576
199209090620 0.990012020950453
199209090625 0.990149729745656
199209090630 0.99026981775473
199209090635 0.990406846318513
199209090640 0.99050555296616
199209090645 0.990617104492489
199209090650 0.99070057383462
199209090655 0.990809447795627
199209090700 0.990899585740549
199209090705 0.991022382148042
199209090710 0.991132975226509
199209090715 0.991269529588444
199209090720 0.991382138698065
199209090725 0.991509850580927
199209090730 0.991602818841345
199209090735 0.991711192319234
199209090740 0.991791190087752
199209090745 0.991897621415203
199209090750 0.991988270714084
199209090755 0.992115763687623
199209090800 0.99223019768401
199209090805 0.992372486855981
199209090810 0.992489389394331
199209090815 0.992615071289367
199209090820 0.992700716082964
199209090825 0.992802951946403
199209090830 0.992881042678844
199209090835 0.992994087408291
199209090840 0.993096893503432
199209090845 0.993232305124507
199209090850 0.99334739717934
199209090855 0.993480952653865
199209090900 0.993582815459815
199209090905 0.993701858712667
199209090910 0.993795561635774
199209090915 0.993914216151957
199209090920 0.994007928651342
199209090925 0.994124929753836
199209090930 0.994218257879928
199209090935 0.994337868962336
199209090940 0.9944393365865
199209090945 0.994568408892057
199209090950 0.994672998278767
199209090955 0.99479742247037
199209091000 0.994897331061917
199209091005 0.99501786055561
199209091010 0.995109955846545
199209091015 0.995224130592192
199209091020 0.995315201596109
199209091025 0.995434740442181
199209091030 0.995535671311984
199209091035 0.995663560320802
199209091040 0.99576857510534
199209091045 0.995892248228048
199209091050 0.995986806112157
199209091055 0.996104369973937
199209091100 0.996201739354388
199209091105 0.996327314436293
199209091110 0.996429987535253
199209091115 0.9965542784399
199209091120 0.996651517225366
199209091125 0.996770185404779
199209091130 0.996863552995678
199209091135 0.9969819674662
199209091140 0.99707844477188
199209091145 0.997203161052395
199209091150 0.997309310191433
199209091155 0.997437826582585
199209091200 0.997539264732616
199209091205 0.997662160826083
199209091210 0.997756777568124
199209091215 0.997871914383263
199209091220 0.997961659474167
199209091225 0.998078301934521
199209091230 0.998175855869985
199209091235 0.998301732182774
199209091240 0.998409210378637
199209091245 0.998541095252387
199209091250 0.998644786063522
199209091255 0.998765145984401
199209091300 0.99885451890775
199209091305 0.998966013810255
199209091310 0.999055259323844
199209091315 0.999175046160488
199209091320 0.999277423940886
199209091325 0.999407142805697
199209091330 0.999513378840295
199209091335 0.999640032522865
199209091340 0.999737675738317
199209091345 0.999853878348325
199209091350 0.999939520112534
199209091355 1.00005340214905
199209091400 1.000151238259
199209091405 1.00028241541285
199209091410 1.00039775854371
199209091415 1.00053572032446
199209091420 1.00063764746568
199209091425 1.00075105605996
199209091430 1.00083208502283
199209091435 1.00093964449577
199209091440 1.00103149004177
199209091445 1.00115828050178
199209091450 1.00126893406321
199209091455 1.0014035502754
199209091500 1.00151005045226
199209091505 1.00163261471021
199209091510 1.00172347418276
199209091515 1.00183583663657
199209091520 1.00192770430358
199209091525 1.00205158783841
199209091530 1.00215606556542
199209091535 1.00228173359099
199209091540 1.00237941528654
199209091545 1.00249736057993
199209091550 1.00259009005189
199209091555 1.00271169463007
199209091600 1.00281469916157
199209091605 1.00294423542455
199209091610 1.0030469944648
199209091615 1.00316791122023
199209091620 1.00326230904251
199209091625 1.0033819758522
199209091630 1.0034800310652
199209091635 1.00360461048948
199209091640 1.00370639389026
199209091645 1.00383161214275
199209091650 1.00393073344386
199209091655 1.00405196512556
199209091700 1.00414733884456
199209091705 1.0042676141513
199209091710 1.0043656616098
199209091715 1.00448993332458
199209091720 1.0045909373107
199209091725 1.0047155101663
199209091730 1.00481215713275
199209091735 1.0049287988657
199209091740 1.00501907693181
199209091745 1.00514070258656
199209091750 1.00524673577986
199209091755 1.00538047154455
199209091800 1.00549077469446
199209091805 1.00562301390448
199209091810 1.00572391089428
199209091815 1.0058418897923
199209091820 1.00593235828165
199209091825 1.00604565708496
199209091830 1.00613577341084
199209091835 1.00625570474781
199209091840 1.0063577803146
199209091845 1.0064876613537
199209091850 1.00659391761094
199209091855 1.00672071595993
199209091900 1.00681797593424
199209091905 1.00693547248056
199209091910 1.00702619836816
199209091915 1.00714385426654
199209091920 1.00724194237506
199209091925 1.00736910850128
199209091930 1.00747440739533
199209091935 1.00760295275684
199209091940 1.00770413234256
199209091945 1.00782571174544
199209091950 1.0079193606517
199209091955 1.00803731416165
199209092000 1.0081325671171
199209092005 1.00825624738391
199209092010 1.00835938528949
199209092015 1.00848816258975
199209092020 1.00859186174272
199209092025 1.0087168046297
199209092030 1.00881361387893
199209092035 1.00893329747279
199209092040 1.00902865837634
199209092045 1.00915123125773
199209092050 1.00925642343511
199209092055 1.00938726351573
199209092100 1.00949049144288
199209092105 1.00960960277321
199209092110 1.00969806931653
199209092115 1.00981417167447
199209092120 1.00991287838531
199209092125 1.01004320812651
199209092130 1.01015313196729
199209092135 1.01028471641892
199209092140 1.01038670754157
199209092145 1.01050696963404
199209092150 1.01059896490451
199209092155 1.01071951472589
199209092200 1.01082295062296
199209092205 1.01095243000737
199209092210 1.01105473197894
199209092215 1.01117679717561
199209092220 1.011270081296
199209092225 1.01138755816504
199209092230 1.01148272528487
199209092235 1.01160736042441
199209092240 1.01171167334268
199209092245 1.01184149261407
199209092250 1.0119452810521
199209092255 1.01207017603504
199209092300 1.01216678452909
199209092305 1.01228662316012
199209092310 1.01237854124323
199209092315 1.01249924968345
199209092320 1.01260272233566
199209092325 1.01273571362633
199209092330 1.01284265525158
199209092335 1.01296745801786
199209092340 1.01306468904762
199209092345 1.01318698216095
199209092350 1.01328616249721
199209092355 1.01341245005169
199209100000 1.01351570967141
