*
* Deltares, Delft3D-RGFGRID Version 4.17.03.7767, Jul 10 2009, 10:12:13
* File creation date: 2010-07-14, 11:35:00
*
Coordinate System = Cartesian
      16      16
 0 0 0
 ETA=    1   1.00000000000000000E+02   3.00000000000000000E+02   5.00000000000000000E+02   7.00000000000000000E+02   9.00000000000000000E+02
             1.10000000000000000E+03   1.30000000000000000E+03   1.50000000000000000E+03   1.70000000000000000E+03   1.90000000000000000E+03
             2.10000000000000000E+03   2.30000000000000000E+03   2.50000000000000000E+03   2.70000000000000000E+03   2.90000000000000000E+03
             3.10000000000000000E+03
 ETA=    2   1.00000000000000000E+02   3.00000000000000000E+02   5.00000000000000000E+02   7.00000000000000000E+02   9.00000000000000000E+02
             1.10000000000000000E+03   1.30000000000000000E+03   1.50000000000000000E+03   1.70000000000000000E+03   1.90000000000000000E+03
             2.10000000000000000E+03   2.30000000000000000E+03   2.50000000000000000E+03   2.70000000000000000E+03   2.90000000000000000E+03
             3.10000000000000000E+03
 ETA=    3   1.00000000000000000E+02   3.00000000000000000E+02   5.00000000000000000E+02   7.00000000000000000E+02   9.00000000000000000E+02
             1.10000000000000000E+03   1.30000000000000000E+03   1.50000000000000000E+03   1.70000000000000000E+03   1.90000000000000000E+03
             2.10000000000000000E+03   2.30000000000000000E+03   2.50000000000000000E+03   2.70000000000000000E+03   2.90000000000000000E+03
             3.10000000000000000E+03
 ETA=    4   1.00000000000000000E+02   3.00000000000000000E+02   5.00000000000000000E+02   7.00000000000000000E+02   9.00000000000000000E+02
             1.10000000000000000E+03   1.30000000000000000E+03   1.50000000000000000E+03   1.70000000000000000E+03   1.90000000000000000E+03
             2.10000000000000000E+03   2.30000000000000000E+03   2.50000000000000000E+03   2.70000000000000000E+03   2.90000000000000000E+03
             3.10000000000000000E+03
 ETA=    5   1.00000000000000000E+02   3.00000000000000000E+02   5.00000000000000000E+02   7.00000000000000000E+02   9.00000000000000000E+02
             1.10000000000000000E+03   1.30000000000000000E+03   1.50000000000000000E+03   1.70000000000000000E+03   1.90000000000000000E+03
             2.10000000000000000E+03   2.30000000000000000E+03   2.50000000000000000E+03   2.70000000000000000E+03   2.90000000000000000E+03
             3.10000000000000000E+03
 ETA=    6   1.00000000000000000E+02   3.00000000000000000E+02   5.00000000000000000E+02   7.00000000000000000E+02   9.00000000000000000E+02
             1.10000000000000000E+03   1.30000000000000000E+03   1.50000000000000000E+03   1.70000000000000000E+03   1.90000000000000000E+03
             2.10000000000000000E+03   2.30000000000000000E+03   2.50000000000000000E+03   2.70000000000000000E+03   2.90000000000000000E+03
             3.10000000000000000E+03
 ETA=    7   1.00000000000000000E+02   3.00000000000000000E+02   5.00000000000000000E+02   7.00000000000000000E+02   9.00000000000000000E+02
             1.10000000000000000E+03   1.30000000000000000E+03   1.50000000000000000E+03   1.70000000000000000E+03   1.90000000000000000E+03
             2.10000000000000000E+03   2.30000000000000000E+03   2.50000000000000000E+03   2.70000000000000000E+03   2.90000000000000000E+03
             3.10000000000000000E+03
 ETA=    8   1.00000000000000000E+02   3.00000000000000000E+02   5.00000000000000000E+02   7.00000000000000000E+02   9.00000000000000000E+02
             1.10000000000000000E+03   1.30000000000000000E+03   1.50000000000000000E+03   1.70000000000000000E+03   1.90000000000000000E+03
             2.10000000000000000E+03   2.30000000000000000E+03   2.50000000000000000E+03   2.70000000000000000E+03   2.90000000000000000E+03
             3.10000000000000000E+03
 ETA=    9   1.00000000000000000E+02   3.00000000000000000E+02   5.00000000000000000E+02   7.00000000000000000E+02   9.00000000000000000E+02
             1.10000000000000000E+03   1.30000000000000000E+03   1.50000000000000000E+03   1.70000000000000000E+03   1.90000000000000000E+03
             2.10000000000000000E+03   2.30000000000000000E+03   2.50000000000000000E+03   2.70000000000000000E+03   2.90000000000000000E+03
             3.10000000000000000E+03
 ETA=   10   1.00000000000000000E+02   3.00000000000000000E+02   5.00000000000000000E+02   7.00000000000000000E+02   9.00000000000000000E+02
             1.10000000000000000E+03   1.30000000000000000E+03   1.50000000000000000E+03   1.70000000000000000E+03   1.90000000000000000E+03
             2.10000000000000000E+03   2.30000000000000000E+03   2.50000000000000000E+03   2.70000000000000000E+03   2.90000000000000000E+03
             3.10000000000000000E+03
 ETA=   11   1.00000000000000000E+02   3.00000000000000000E+02   5.00000000000000000E+02   7.00000000000000000E+02   9.00000000000000000E+02
             1.10000000000000000E+03   1.30000000000000000E+03   1.50000000000000000E+03   1.70000000000000000E+03   1.90000000000000000E+03
             2.10000000000000000E+03   2.30000000000000000E+03   2.50000000000000000E+03   2.70000000000000000E+03   2.90000000000000000E+03
             3.10000000000000000E+03
 ETA=   12   1.00000000000000000E+02   3.00000000000000000E+02   5.00000000000000000E+02   7.00000000000000000E+02   9.00000000000000000E+02
             1.10000000000000000E+03   1.30000000000000000E+03   1.50000000000000000E+03   1.70000000000000000E+03   1.90000000000000000E+03
             2.10000000000000000E+03   2.30000000000000000E+03   2.50000000000000000E+03   2.70000000000000000E+03   2.90000000000000000E+03
             3.10000000000000000E+03
 ETA=   13   1.00000000000000000E+02   3.00000000000000000E+02   5.00000000000000000E+02   7.00000000000000000E+02   9.00000000000000000E+02
             1.10000000000000000E+03   1.30000000000000000E+03   1.50000000000000000E+03   1.70000000000000000E+03   1.90000000000000000E+03
             2.10000000000000000E+03   2.30000000000000000E+03   2.50000000000000000E+03   2.70000000000000000E+03   2.90000000000000000E+03
             3.10000000000000000E+03
 ETA=   14   1.00000000000000000E+02   3.00000000000000000E+02   5.00000000000000000E+02   7.00000000000000000E+02   9.00000000000000000E+02
             1.10000000000000000E+03   1.30000000000000000E+03   1.50000000000000000E+03   1.70000000000000000E+03   1.90000000000000000E+03
             2.10000000000000000E+03   2.30000000000000000E+03   2.50000000000000000E+03   2.70000000000000000E+03   2.90000000000000000E+03
             3.10000000000000000E+03
 ETA=   15   1.00000000000000000E+02   3.00000000000000000E+02   5.00000000000000000E+02   7.00000000000000000E+02   9.00000000000000000E+02
             1.10000000000000000E+03   1.30000000000000000E+03   1.50000000000000000E+03   1.70000000000000000E+03   1.90000000000000000E+03
             2.10000000000000000E+03   2.30000000000000000E+03   2.50000000000000000E+03   2.70000000000000000E+03   2.90000000000000000E+03
             3.10000000000000000E+03
 ETA=   16   1.00000000000000000E+02   3.00000000000000000E+02   5.00000000000000000E+02   7.00000000000000000E+02   9.00000000000000000E+02
             1.10000000000000000E+03   1.30000000000000000E+03   1.50000000000000000E+03   1.70000000000000000E+03   1.90000000000000000E+03
             2.10000000000000000E+03   2.30000000000000000E+03   2.50000000000000000E+03   2.70000000000000000E+03   2.90000000000000000E+03
             3.10000000000000000E+03
 ETA=    1   1.00000000000000000E+02   1.00000000000000000E+02   1.00000000000000000E+02   1.00000000000000000E+02   1.00000000000000000E+02
             1.00000000000000000E+02   1.00000000000000000E+02   1.00000000000000000E+02   1.00000000000000000E+02   1.00000000000000000E+02
             1.00000000000000000E+02   1.00000000000000000E+02   1.00000000000000000E+02   1.00000000000000000E+02   1.00000000000000000E+02
             1.00000000000000000E+02
 ETA=    2   3.00000000000000000E+02   3.00000000000000000E+02   3.00000000000000000E+02   3.00000000000000000E+02   3.00000000000000000E+02
             3.00000000000000000E+02   3.00000000000000000E+02   3.00000000000000000E+02   3.00000000000000000E+02   3.00000000000000000E+02
             3.00000000000000000E+02   3.00000000000000000E+02   3.00000000000000000E+02   3.00000000000000000E+02   3.00000000000000000E+02
             3.00000000000000000E+02
 ETA=    3   5.00000000000000000E+02   5.00000000000000000E+02   5.00000000000000000E+02   5.00000000000000000E+02   5.00000000000000000E+02
             5.00000000000000000E+02   5.00000000000000000E+02   5.00000000000000000E+02   5.00000000000000000E+02   5.00000000000000000E+02
             5.00000000000000000E+02   5.00000000000000000E+02   5.00000000000000000E+02   5.00000000000000000E+02   5.00000000000000000E+02
             5.00000000000000000E+02
 ETA=    4   7.00000000000000000E+02   7.00000000000000000E+02   7.00000000000000000E+02   7.00000000000000000E+02   7.00000000000000000E+02
             7.00000000000000000E+02   7.00000000000000000E+02   7.00000000000000000E+02   7.00000000000000000E+02   7.00000000000000000E+02
             7.00000000000000000E+02   7.00000000000000000E+02   7.00000000000000000E+02   7.00000000000000000E+02   7.00000000000000000E+02
             7.00000000000000000E+02
 ETA=    5   9.00000000000000000E+02   9.00000000000000000E+02   9.00000000000000000E+02   9.00000000000000000E+02   9.00000000000000000E+02
             9.00000000000000000E+02   9.00000000000000000E+02   9.00000000000000000E+02   9.00000000000000000E+02   9.00000000000000000E+02
             9.00000000000000000E+02   9.00000000000000000E+02   9.00000000000000000E+02   9.00000000000000000E+02   9.00000000000000000E+02
             9.00000000000000000E+02
 ETA=    6   1.10000000000000000E+03   1.10000000000000000E+03   1.10000000000000000E+03   1.10000000000000000E+03   1.10000000000000000E+03
             1.10000000000000000E+03   1.10000000000000000E+03   1.10000000000000000E+03   1.10000000000000000E+03   1.10000000000000000E+03
             1.10000000000000000E+03   1.10000000000000000E+03   1.10000000000000000E+03   1.10000000000000000E+03   1.10000000000000000E+03
             1.10000000000000000E+03
 ETA=    7   1.30000000000000000E+03   1.30000000000000000E+03   1.30000000000000000E+03   1.30000000000000000E+03   1.30000000000000000E+03
             1.30000000000000000E+03   1.30000000000000000E+03   1.30000000000000000E+03   1.30000000000000000E+03   1.30000000000000000E+03
             1.30000000000000000E+03   1.30000000000000000E+03   1.30000000000000000E+03   1.30000000000000000E+03   1.30000000000000000E+03
             1.30000000000000000E+03
 ETA=    8   1.50000000000000000E+03   1.50000000000000000E+03   1.50000000000000000E+03   1.50000000000000000E+03   1.50000000000000000E+03
             1.50000000000000000E+03   1.50000000000000000E+03   1.50000000000000000E+03   1.50000000000000000E+03   1.50000000000000000E+03
             1.50000000000000000E+03   1.50000000000000000E+03   1.50000000000000000E+03   1.50000000000000000E+03   1.50000000000000000E+03
             1.50000000000000000E+03
 ETA=    9   1.70000000000000000E+03   1.70000000000000000E+03   1.70000000000000000E+03   1.70000000000000000E+03   1.70000000000000000E+03
             1.70000000000000000E+03   1.70000000000000000E+03   1.70000000000000000E+03   1.70000000000000000E+03   1.70000000000000000E+03
             1.70000000000000000E+03   1.70000000000000000E+03   1.70000000000000000E+03   1.70000000000000000E+03   1.70000000000000000E+03
             1.70000000000000000E+03
 ETA=   10   1.90000000000000000E+03   1.90000000000000000E+03   1.90000000000000000E+03   1.90000000000000000E+03   1.90000000000000000E+03
             1.90000000000000000E+03   1.90000000000000000E+03   1.90000000000000000E+03   1.90000000000000000E+03   1.90000000000000000E+03
             1.90000000000000000E+03   1.90000000000000000E+03   1.90000000000000000E+03   1.90000000000000000E+03   1.90000000000000000E+03
             1.90000000000000000E+03
 ETA=   11   2.10000000000000000E+03   2.10000000000000000E+03   2.10000000000000000E+03   2.10000000000000000E+03   2.10000000000000000E+03
             2.10000000000000000E+03   2.10000000000000000E+03   2.10000000000000000E+03   2.10000000000000000E+03   2.10000000000000000E+03
             2.10000000000000000E+03   2.10000000000000000E+03   2.10000000000000000E+03   2.10000000000000000E+03   2.10000000000000000E+03
             2.10000000000000000E+03
 ETA=   12   2.30000000000000000E+03   2.30000000000000000E+03   2.30000000000000000E+03   2.30000000000000000E+03   2.30000000000000000E+03
             2.30000000000000000E+03   2.30000000000000000E+03   2.30000000000000000E+03   2.30000000000000000E+03   2.30000000000000000E+03
             2.30000000000000000E+03   2.30000000000000000E+03   2.30000000000000000E+03   2.30000000000000000E+03   2.30000000000000000E+03
             2.30000000000000000E+03
 ETA=   13   2.50000000000000000E+03   2.50000000000000000E+03   2.50000000000000000E+03   2.50000000000000000E+03   2.50000000000000000E+03
             2.50000000000000000E+03   2.50000000000000000E+03   2.50000000000000000E+03   2.50000000000000000E+03   2.50000000000000000E+03
             2.50000000000000000E+03   2.50000000000000000E+03   2.50000000000000000E+03   2.50000000000000000E+03   2.50000000000000000E+03
             2.50000000000000000E+03
 ETA=   14   2.70000000000000000E+03   2.70000000000000000E+03   2.70000000000000000E+03   2.70000000000000000E+03   2.70000000000000000E+03
             2.70000000000000000E+03   2.70000000000000000E+03   2.70000000000000000E+03   2.70000000000000000E+03   2.70000000000000000E+03
             2.70000000000000000E+03   2.70000000000000000E+03   2.70000000000000000E+03   2.70000000000000000E+03   2.70000000000000000E+03
             2.70000000000000000E+03
 ETA=   15   2.90000000000000000E+03   2.90000000000000000E+03   2.90000000000000000E+03   2.90000000000000000E+03   2.90000000000000000E+03
             2.90000000000000000E+03   2.90000000000000000E+03   2.90000000000000000E+03   2.90000000000000000E+03   2.90000000000000000E+03
             2.90000000000000000E+03   2.90000000000000000E+03   2.90000000000000000E+03   2.90000000000000000E+03   2.90000000000000000E+03
             2.90000000000000000E+03
 ETA=   16   3.10000000000000000E+03   3.10000000000000000E+03   3.10000000000000000E+03   3.10000000000000000E+03   3.10000000000000000E+03
             3.10000000000000000E+03   3.10000000000000000E+03   3.10000000000000000E+03   3.10000000000000000E+03   3.10000000000000000E+03
             3.10000000000000000E+03   3.10000000000000000E+03   3.10000000000000000E+03   3.10000000000000000E+03   3.10000000000000000E+03
             3.10000000000000000E+03
