*
* Deltares, Delft3D-RGFGRID Version 4.18.01.18383, Sep  7 2011, 14:23:22
* File creation date: 2011-10-21, 11:11:32
*
Coordinate System = Cartesian
     199       2
 0 0 0
 ETA=    1   1.00000000000000000E+00   5.01000000000000000E+02   1.00100000000000000E+03   1.50100000000000000E+03   2.00100000000000000E+03
             2.50100000000000000E+03   3.00100000000000000E+03   3.50100000000000000E+03   4.00100000000000000E+03   4.50100000000000000E+03
             5.00100000000000000E+03   5.50100000000000000E+03   6.00100000000000000E+03   6.50100000000000000E+03   7.00100000000000000E+03
             7.50100000000000000E+03   8.00100000000000000E+03   8.50100000000000000E+03   9.00100000000000000E+03   9.50100000000000000E+03
             1.00010000000000000E+04   1.05010000000000000E+04   1.10010000000000000E+04   1.15010000000000000E+04   1.20010000000000000E+04
             1.25010000000000000E+04   1.30010000000000000E+04   1.35010000000000000E+04   1.40010000000000000E+04   1.45010000000000000E+04
             1.50010000000000000E+04   1.55010000000000000E+04   1.60010000000000000E+04   1.65010000000000000E+04   1.70010000000000000E+04
             1.75010000000000000E+04   1.80010000000000000E+04   1.85010000000000000E+04   1.90010000000000000E+04   1.95010000000000000E+04
             2.00010000000000000E+04   2.05010000000000000E+04   2.10010000000000000E+04   2.15010000000000000E+04   2.20010000000000000E+04
             2.25010000000000000E+04   2.30010000000000000E+04   2.35010000000000000E+04   2.40010000000000000E+04   2.45010000000000000E+04
             2.50010000000000000E+04   2.55010000000000000E+04   2.60010000000000000E+04   2.65010000000000000E+04   2.70010000000000000E+04
             2.75010000000000000E+04   2.80010000000000000E+04   2.85010000000000000E+04   2.90010000000000000E+04   2.95010000000000000E+04
             3.00010000000000000E+04   3.05010000000000000E+04   3.10010000000000000E+04   3.15010000000000000E+04   3.20010000000000000E+04
             3.25010000000000000E+04   3.30010000000000000E+04   3.35010000000000000E+04   3.40010000000000000E+04   3.45010000000000000E+04
             3.50010000000000000E+04   3.55010000000000000E+04   3.60010000000000000E+04   3.65010000000000000E+04   3.70010000000000000E+04
             3.75010000000000000E+04   3.80010000000000000E+04   3.85010000000000000E+04   3.90010000000000000E+04   3.95010000000000000E+04
             4.00010000000000000E+04   4.05010000000000000E+04   4.10010000000000000E+04   4.15010000000000000E+04   4.20010000000000000E+04
             4.25010000000000000E+04   4.30010000000000000E+04   4.35010000000000000E+04   4.40010000000000000E+04   4.45010000000000000E+04
             4.50010000000000000E+04   4.55010000000000000E+04   4.60010000000000000E+04   4.65010000000000000E+04   4.70010000000000000E+04
             4.75010000000000000E+04   4.80010000000000000E+04   4.85010000000000000E+04   4.90010000000000000E+04   4.95010000000000000E+04
             5.00010000000000000E+04   5.05010000000000000E+04   5.10010000000000000E+04   5.15010000000000000E+04   5.20010000000000000E+04
             5.25010000000000000E+04   5.30010000000000000E+04   5.35010000000000000E+04   5.40010000000000000E+04   5.45010000000000000E+04
             5.50010000000000000E+04   5.55010000000000000E+04   5.60010000000000000E+04   5.65010000000000000E+04   5.70010000000000000E+04
             5.75010000000000000E+04   5.80010000000000000E+04   5.85010000000000000E+04   5.90010000000000000E+04   5.95010000000000000E+04
             6.00010000000000000E+04   6.05010000000000000E+04   6.10010000000000000E+04   6.15010000000000000E+04   6.20010000000000000E+04
             6.25010000000000000E+04   6.30010000000000000E+04   6.35010000000000000E+04   6.40010000000000000E+04   6.45010000000000000E+04
             6.50010000000000000E+04   6.55010000000000000E+04   6.60010000000000000E+04   6.65010000000000000E+04   6.70010000000000000E+04
             6.75010000000000000E+04   6.80010000000000000E+04   6.85010000000000000E+04   6.90010000000000000E+04   6.95010000000000000E+04
             7.00010000000000000E+04   7.05010000000000000E+04   7.10010000000000000E+04   7.15010000000000000E+04   7.20010000000000000E+04
             7.25010000000000000E+04   7.30010000000000000E+04   7.35010000000000000E+04   7.40010000000000000E+04   7.45010000000000000E+04
             7.50010000000000000E+04   7.55010000000000000E+04   7.60010000000000000E+04   7.65010000000000000E+04   7.70010000000000000E+04
             7.75010000000000000E+04   7.80010000000000000E+04   7.85010000000000000E+04   7.90010000000000000E+04   7.95010000000000000E+04
             8.00010000000000000E+04   8.05010000000000000E+04   8.10010000000000000E+04   8.15010000000000000E+04   8.20010000000000000E+04
             8.25010000000000000E+04   8.30010000000000000E+04   8.35010000000000000E+04   8.40010000000000000E+04   8.45010000000000000E+04
             8.50010000000000000E+04   8.55010000000000000E+04   8.60010000000000000E+04   8.65010000000000000E+04   8.70010000000000000E+04
             8.75010000000000000E+04   8.80010000000000000E+04   8.85010000000000000E+04   8.90010000000000000E+04   8.95010000000000000E+04
             9.00010000000000000E+04   9.05010000000000000E+04   9.10010000000000000E+04   9.15010000000000000E+04   9.20010000000000000E+04
             9.25010000000000000E+04   9.30010000000000000E+04   9.35010000000000000E+04   9.40010000000000000E+04   9.45010000000000000E+04
             9.50010000000000000E+04   9.55010000000000000E+04   9.60010000000000000E+04   9.65010000000000000E+04   9.70010000000000000E+04
             9.75010000000000000E+04   9.80010000000000000E+04   9.85010000000000000E+04   9.90010000000000000E+04
 ETA=    2   1.00000000000000000E+00   5.01000000000000000E+02   1.00100000000000000E+03   1.50100000000000000E+03   2.00100000000000000E+03
             2.50100000000000000E+03   3.00100000000000000E+03   3.50100000000000000E+03   4.00100000000000000E+03   4.50100000000000000E+03
             5.00100000000000000E+03   5.50100000000000000E+03   6.00100000000000000E+03   6.50100000000000000E+03   7.00100000000000000E+03
             7.50100000000000000E+03   8.00100000000000000E+03   8.50100000000000000E+03   9.00100000000000000E+03   9.50100000000000000E+03
             1.00010000000000000E+04   1.05010000000000000E+04   1.10010000000000000E+04   1.15010000000000000E+04   1.20010000000000000E+04
             1.25010000000000000E+04   1.30010000000000000E+04   1.35010000000000000E+04   1.40010000000000000E+04   1.45010000000000000E+04
             1.50010000000000000E+04   1.55010000000000000E+04   1.60010000000000000E+04   1.65010000000000000E+04   1.70010000000000000E+04
             1.75010000000000000E+04   1.80010000000000000E+04   1.85010000000000000E+04   1.90010000000000000E+04   1.95010000000000000E+04
             2.00010000000000000E+04   2.05010000000000000E+04   2.10010000000000000E+04   2.15010000000000000E+04   2.20010000000000000E+04
             2.25010000000000000E+04   2.30010000000000000E+04   2.35010000000000000E+04   2.40010000000000000E+04   2.45010000000000000E+04
             2.50010000000000000E+04   2.55010000000000000E+04   2.60010000000000000E+04   2.65010000000000000E+04   2.70010000000000000E+04
             2.75010000000000000E+04   2.80010000000000000E+04   2.85010000000000000E+04   2.90010000000000000E+04   2.95010000000000000E+04
             3.00010000000000000E+04   3.05010000000000000E+04   3.10010000000000000E+04   3.15010000000000000E+04   3.20010000000000000E+04
             3.25010000000000000E+04   3.30010000000000000E+04   3.35010000000000000E+04   3.40010000000000000E+04   3.45010000000000000E+04
             3.50010000000000000E+04   3.55010000000000000E+04   3.60010000000000000E+04   3.65010000000000000E+04   3.70010000000000000E+04
             3.75010000000000000E+04   3.80010000000000000E+04   3.85010000000000000E+04   3.90010000000000000E+04   3.95010000000000000E+04
             4.00010000000000000E+04   4.05010000000000000E+04   4.10010000000000000E+04   4.15010000000000000E+04   4.20010000000000000E+04
             4.25010000000000000E+04   4.30010000000000000E+04   4.35010000000000000E+04   4.40010000000000000E+04   4.45010000000000000E+04
             4.50010000000000000E+04   4.55010000000000000E+04   4.60010000000000000E+04   4.65010000000000000E+04   4.70010000000000000E+04
             4.75010000000000000E+04   4.80010000000000000E+04   4.85010000000000000E+04   4.90010000000000000E+04   4.95010000000000000E+04
             5.00010000000000000E+04   5.05010000000000000E+04   5.10010000000000000E+04   5.15010000000000000E+04   5.20010000000000000E+04
             5.25010000000000000E+04   5.30010000000000000E+04   5.35010000000000000E+04   5.40010000000000000E+04   5.45010000000000000E+04
             5.50010000000000000E+04   5.55010000000000000E+04   5.60010000000000000E+04   5.65010000000000000E+04   5.70010000000000000E+04
             5.75010000000000000E+04   5.80010000000000000E+04   5.85010000000000000E+04   5.90010000000000000E+04   5.95010000000000000E+04
             6.00010000000000000E+04   6.05010000000000000E+04   6.10010000000000000E+04   6.15010000000000000E+04   6.20010000000000000E+04
             6.25010000000000000E+04   6.30010000000000000E+04   6.35010000000000000E+04   6.40010000000000000E+04   6.45010000000000000E+04
             6.50010000000000000E+04   6.55010000000000000E+04   6.60010000000000000E+04   6.65010000000000000E+04   6.70010000000000000E+04
             6.75010000000000000E+04   6.80010000000000000E+04   6.85010000000000000E+04   6.90010000000000000E+04   6.95010000000000000E+04
             7.00010000000000000E+04   7.05010000000000000E+04   7.10010000000000000E+04   7.15010000000000000E+04   7.20010000000000000E+04
             7.25010000000000000E+04   7.30010000000000000E+04   7.35010000000000000E+04   7.40010000000000000E+04   7.45010000000000000E+04
             7.50010000000000000E+04   7.55010000000000000E+04   7.60010000000000000E+04   7.65010000000000000E+04   7.70010000000000000E+04
             7.75010000000000000E+04   7.80010000000000000E+04   7.85010000000000000E+04   7.90010000000000000E+04   7.95010000000000000E+04
             8.00010000000000000E+04   8.05010000000000000E+04   8.10010000000000000E+04   8.15010000000000000E+04   8.20010000000000000E+04
             8.25010000000000000E+04   8.30010000000000000E+04   8.35010000000000000E+04   8.40010000000000000E+04   8.45010000000000000E+04
             8.50010000000000000E+04   8.55010000000000000E+04   8.60010000000000000E+04   8.65010000000000000E+04   8.70010000000000000E+04
             8.75010000000000000E+04   8.80010000000000000E+04   8.85010000000000000E+04   8.90010000000000000E+04   8.95010000000000000E+04
             9.00010000000000000E+04   9.05010000000000000E+04   9.10010000000000000E+04   9.15010000000000000E+04   9.20010000000000000E+04
             9.25010000000000000E+04   9.30010000000000000E+04   9.35010000000000000E+04   9.40010000000000000E+04   9.45010000000000000E+04
             9.50010000000000000E+04   9.55010000000000000E+04   9.60010000000000000E+04   9.65010000000000000E+04   9.70010000000000000E+04
             9.75010000000000000E+04   9.80010000000000000E+04   9.85010000000000000E+04   9.90010000000000000E+04
 ETA=    1   1.00000000000000000E+00   1.00000000000000000E+00   1.00000000000000000E+00   1.00000000000000000E+00   1.00000000000000000E+00
             1.00000000000000000E+00   1.00000000000000000E+00   1.00000000000000000E+00   1.00000000000000000E+00   1.00000000000000000E+00
             1.00000000000000000E+00   1.00000000000000000E+00   1.00000000000000000E+00   1.00000000000000000E+00   1.00000000000000000E+00
             1.00000000000000000E+00   1.00000000000000000E+00   1.00000000000000000E+00   1.00000000000000000E+00   1.00000000000000000E+00
             1.00000000000000000E+00   1.00000000000000000E+00   1.00000000000000000E+00   1.00000000000000000E+00   1.00000000000000000E+00
             1.00000000000000000E+00   1.00000000000000000E+00   1.00000000000000000E+00   1.00000000000000000E+00   1.00000000000000000E+00
             1.00000000000000000E+00   1.00000000000000000E+00   1.00000000000000000E+00   1.00000000000000000E+00   1.00000000000000000E+00
             1.00000000000000000E+00   1.00000000000000000E+00   1.00000000000000000E+00   1.00000000000000000E+00   1.00000000000000000E+00
             1.00000000000000000E+00   1.00000000000000000E+00   1.00000000000000000E+00   1.00000000000000000E+00   1.00000000000000000E+00
             1.00000000000000000E+00   1.00000000000000000E+00   1.00000000000000000E+00   1.00000000000000000E+00   1.00000000000000000E+00
             1.00000000000000000E+00   1.00000000000000000E+00   1.00000000000000000E+00   1.00000000000000000E+00   1.00000000000000000E+00
             1.00000000000000000E+00   1.00000000000000000E+00   1.00000000000000000E+00   1.00000000000000000E+00   1.00000000000000000E+00
             1.00000000000000000E+00   1.00000000000000000E+00   1.00000000000000000E+00   1.00000000000000000E+00   1.00000000000000000E+00
             1.00000000000000000E+00   1.00000000000000000E+00   1.00000000000000000E+00   1.00000000000000000E+00   1.00000000000000000E+00
             1.00000000000000000E+00   1.00000000000000000E+00   1.00000000000000000E+00   1.00000000000000000E+00   1.00000000000000000E+00
             1.00000000000000000E+00   1.00000000000000000E+00   1.00000000000000000E+00   1.00000000000000000E+00   1.00000000000000000E+00
             1.00000000000000000E+00   1.00000000000000000E+00   1.00000000000000000E+00   1.00000000000000000E+00   1.00000000000000000E+00
             1.00000000000000000E+00   1.00000000000000000E+00   1.00000000000000000E+00   1.00000000000000000E+00   1.00000000000000000E+00
             1.00000000000000000E+00   1.00000000000000000E+00   1.00000000000000000E+00   1.00000000000000000E+00   1.00000000000000000E+00
             1.00000000000000000E+00   1.00000000000000000E+00   1.00000000000000000E+00   1.00000000000000000E+00   1.00000000000000000E+00
             1.00000000000000000E+00   1.00000000000000000E+00   1.00000000000000000E+00   1.00000000000000000E+00   1.00000000000000000E+00
             1.00000000000000000E+00   1.00000000000000000E+00   1.00000000000000000E+00   1.00000000000000000E+00   1.00000000000000000E+00
             1.00000000000000000E+00   1.00000000000000000E+00   1.00000000000000000E+00   1.00000000000000000E+00   1.00000000000000000E+00
             1.00000000000000000E+00   1.00000000000000000E+00   1.00000000000000000E+00   1.00000000000000000E+00   1.00000000000000000E+00
             1.00000000000000000E+00   1.00000000000000000E+00   1.00000000000000000E+00   1.00000000000000000E+00   1.00000000000000000E+00
             1.00000000000000000E+00   1.00000000000000000E+00   1.00000000000000000E+00   1.00000000000000000E+00   1.00000000000000000E+00
             1.00000000000000000E+00   1.00000000000000000E+00   1.00000000000000000E+00   1.00000000000000000E+00   1.00000000000000000E+00
             1.00000000000000000E+00   1.00000000000000000E+00   1.00000000000000000E+00   1.00000000000000000E+00   1.00000000000000000E+00
             1.00000000000000000E+00   1.00000000000000000E+00   1.00000000000000000E+00   1.00000000000000000E+00   1.00000000000000000E+00
             1.00000000000000000E+00   1.00000000000000000E+00   1.00000000000000000E+00   1.00000000000000000E+00   1.00000000000000000E+00
             1.00000000000000000E+00   1.00000000000000000E+00   1.00000000000000000E+00   1.00000000000000000E+00   1.00000000000000000E+00
             1.00000000000000000E+00   1.00000000000000000E+00   1.00000000000000000E+00   1.00000000000000000E+00   1.00000000000000000E+00
             1.00000000000000000E+00   1.00000000000000000E+00   1.00000000000000000E+00   1.00000000000000000E+00   1.00000000000000000E+00
             1.00000000000000000E+00   1.00000000000000000E+00   1.00000000000000000E+00   1.00000000000000000E+00   1.00000000000000000E+00
             1.00000000000000000E+00   1.00000000000000000E+00   1.00000000000000000E+00   1.00000000000000000E+00   1.00000000000000000E+00
             1.00000000000000000E+00   1.00000000000000000E+00   1.00000000000000000E+00   1.00000000000000000E+00   1.00000000000000000E+00
             1.00000000000000000E+00   1.00000000000000000E+00   1.00000000000000000E+00   1.00000000000000000E+00   1.00000000000000000E+00
             1.00000000000000000E+00   1.00000000000000000E+00   1.00000000000000000E+00   1.00000000000000000E+00   1.00000000000000000E+00
             1.00000000000000000E+00   1.00000000000000000E+00   1.00000000000000000E+00   1.00000000000000000E+00   1.00000000000000000E+00
             1.00000000000000000E+00   1.00000000000000000E+00   1.00000000000000000E+00   1.00000000000000000E+00
 ETA=    2   5.01000000000000000E+02   5.01000000000000000E+02   5.01000000000000000E+02   5.01000000000000000E+02   5.01000000000000000E+02
             5.01000000000000000E+02   5.01000000000000000E+02   5.01000000000000000E+02   5.01000000000000000E+02   5.01000000000000000E+02
             5.01000000000000000E+02   5.01000000000000000E+02   5.01000000000000000E+02   5.01000000000000000E+02   5.01000000000000000E+02
             5.01000000000000000E+02   5.01000000000000000E+02   5.01000000000000000E+02   5.01000000000000000E+02   5.01000000000000000E+02
             5.01000000000000000E+02   5.01000000000000000E+02   5.01000000000000000E+02   5.01000000000000000E+02   5.01000000000000000E+02
             5.01000000000000000E+02   5.01000000000000000E+02   5.01000000000000000E+02   5.01000000000000000E+02   5.01000000000000000E+02
             5.01000000000000000E+02   5.01000000000000000E+02   5.01000000000000000E+02   5.01000000000000000E+02   5.01000000000000000E+02
             5.01000000000000000E+02   5.01000000000000000E+02   5.01000000000000000E+02   5.01000000000000000E+02   5.01000000000000000E+02
             5.01000000000000000E+02   5.01000000000000000E+02   5.01000000000000000E+02   5.01000000000000000E+02   5.01000000000000000E+02
             5.01000000000000000E+02   5.01000000000000000E+02   5.01000000000000000E+02   5.01000000000000000E+02   5.01000000000000000E+02
             5.01000000000000000E+02   5.01000000000000000E+02   5.01000000000000000E+02   5.01000000000000000E+02   5.01000000000000000E+02
             5.01000000000000000E+02   5.01000000000000000E+02   5.01000000000000000E+02   5.01000000000000000E+02   5.01000000000000000E+02
             5.01000000000000000E+02   5.01000000000000000E+02   5.01000000000000000E+02   5.01000000000000000E+02   5.01000000000000000E+02
             5.01000000000000000E+02   5.01000000000000000E+02   5.01000000000000000E+02   5.01000000000000000E+02   5.01000000000000000E+02
             5.01000000000000000E+02   5.01000000000000000E+02   5.01000000000000000E+02   5.01000000000000000E+02   5.01000000000000000E+02
             5.01000000000000000E+02   5.01000000000000000E+02   5.01000000000000000E+02   5.01000000000000000E+02   5.01000000000000000E+02
             5.01000000000000000E+02   5.01000000000000000E+02   5.01000000000000000E+02   5.01000000000000000E+02   5.01000000000000000E+02
             5.01000000000000000E+02   5.01000000000000000E+02   5.01000000000000000E+02   5.01000000000000000E+02   5.01000000000000000E+02
             5.01000000000000000E+02   5.01000000000000000E+02   5.01000000000000000E+02   5.01000000000000000E+02   5.01000000000000000E+02
             5.01000000000000000E+02   5.01000000000000000E+02   5.01000000000000000E+02   5.01000000000000000E+02   5.01000000000000000E+02
             5.01000000000000000E+02   5.01000000000000000E+02   5.01000000000000000E+02   5.01000000000000000E+02   5.01000000000000000E+02
             5.01000000000000000E+02   5.01000000000000000E+02   5.01000000000000000E+02   5.01000000000000000E+02   5.01000000000000000E+02
             5.01000000000000000E+02   5.01000000000000000E+02   5.01000000000000000E+02   5.01000000000000000E+02   5.01000000000000000E+02
             5.01000000000000000E+02   5.01000000000000000E+02   5.01000000000000000E+02   5.01000000000000000E+02   5.01000000000000000E+02
             5.01000000000000000E+02   5.01000000000000000E+02   5.01000000000000000E+02   5.01000000000000000E+02   5.01000000000000000E+02
             5.01000000000000000E+02   5.01000000000000000E+02   5.01000000000000000E+02   5.01000000000000000E+02   5.01000000000000000E+02
             5.01000000000000000E+02   5.01000000000000000E+02   5.01000000000000000E+02   5.01000000000000000E+02   5.01000000000000000E+02
             5.01000000000000000E+02   5.01000000000000000E+02   5.01000000000000000E+02   5.01000000000000000E+02   5.01000000000000000E+02
             5.01000000000000000E+02   5.01000000000000000E+02   5.01000000000000000E+02   5.01000000000000000E+02   5.01000000000000000E+02
             5.01000000000000000E+02   5.01000000000000000E+02   5.01000000000000000E+02   5.01000000000000000E+02   5.01000000000000000E+02
             5.01000000000000000E+02   5.01000000000000000E+02   5.01000000000000000E+02   5.01000000000000000E+02   5.01000000000000000E+02
             5.01000000000000000E+02   5.01000000000000000E+02   5.01000000000000000E+02   5.01000000000000000E+02   5.01000000000000000E+02
             5.01000000000000000E+02   5.01000000000000000E+02   5.01000000000000000E+02   5.01000000000000000E+02   5.01000000000000000E+02
             5.01000000000000000E+02   5.01000000000000000E+02   5.01000000000000000E+02   5.01000000000000000E+02   5.01000000000000000E+02
             5.01000000000000000E+02   5.01000000000000000E+02   5.01000000000000000E+02   5.01000000000000000E+02   5.01000000000000000E+02
             5.01000000000000000E+02   5.01000000000000000E+02   5.01000000000000000E+02   5.01000000000000000E+02   5.01000000000000000E+02
             5.01000000000000000E+02   5.01000000000000000E+02   5.01000000000000000E+02   5.01000000000000000E+02   5.01000000000000000E+02
             5.01000000000000000E+02   5.01000000000000000E+02   5.01000000000000000E+02   5.01000000000000000E+02   5.01000000000000000E+02
             5.01000000000000000E+02   5.01000000000000000E+02   5.01000000000000000E+02   5.01000000000000000E+02   5.01000000000000000E+02
             5.01000000000000000E+02   5.01000000000000000E+02   5.01000000000000000E+02   5.01000000000000000E+02
