Ident = #Delft3D-FLOW  .03.02 3.41.06.10981#
Commnt=                              
Runtxt= #grid aggioranta al 8/11/11    #
Filcco= #TotORTOGrid10x3.grd#
Fmtcco= #FR#
Anglat=  0.0000000e+000
Grdang=  0.0000000e+000
Filgrd= #TotORTOGrid10x3.enc#
Fmtgrd= #FR#
MNKmax= 12 2117 1
Thick =  1.0000000e+002
Commnt=                              
Fildep= #depthsInterpolN.dep#
Fmtdep= #FR#
Commnt=                              
Commnt=                              no. dry points: 0
Commnt=                              no. thin dams: 0
Commnt=                              
Itdate= #2010-01-01#
Tunit = #M#
Tstart=  522240.0
Tstop =  525120.0
Dt    = 1
Tzone = 0
Commnt=                              
Sub1  = # T I#
Sub2  = #   #
Commnt=                              
Wnsvwp= #N#
Wndint= #Y#
Commnt=                              
Restid= #r02.rst#
Commnt=                              
Commnt=                              no. open boundaries: 2
Filbnd= #r01.bnd#
Fmtbnd= #FR#
FilbcT= #r01.bct#
FmtbcT= #FR#
FilbcC= #r01.bcc#
FmtbcC= #FR#
Rettis=  0.0000000e+000
         0.0000000e+000
Rettib=  0.0000000e+000
         0.0000000e+000
Commnt=                              
Ag    =  9.8100000e+000
Rhow  =  1.0000000e+003
Alph0 = [.]
Tempw =  1.5000000e+001
Salw  =  3.1000000e+001
Rouwav= #    #
Wstres=  6.3000000e-004  0.0000000e+000  7.2300000e-003  1.0000000e+002
Rhoa  =  1.0000000e+000
Betac =  5.0000000e-001
Equili= #N#
Tkemod= #            #
Ktemp = 5
Fclou =  0.0000000e+000
Sarea =  0.0000000e+000
Secchi=  2.0000000e+000
Stantn=  1.3000000e-003
Dalton=  1.3000000e-003
Filtmp= #r01.tem#
Fmttmp= #FR#
Temint= #Y#
Commnt=                              
Roumet= #M#
Ccofu =  3.5000000e-002
Ccofv =  3.5000000e-002
Xlo   =  0.0000000e+000
Vicouv=  1.5000000e+000
Dicouv=  1.0000000e+000
Htur2d= #N#
Irov  = 0
Commnt=                              
Iter  =      2
Dryflp= #YES#
Dpsopt= #MAX#
Dpuopt= #MOR#
Dryflc=  1.0000000e-001
Dco   = -9.9900000e+002
Tlfsmo=  6.0000000e+001
ThetQH=  0.0000000e+000
Forfuv= #Y#
Forfww= #N#
Sigcor= #N#
Trasol= #Cyclic-method#
Momsol= #Cyclic#
Commnt=                              
Commnt=                              no. discharges: 18
Filsrc= #r01.src#
Fmtsrc= #FR#
Fildis= #r01.dis#
Fmtdis= #FR#
Commnt=                              no. observation points: 34
Filsta= #r01.obs#
Fmtsta= #FR#
Commnt=                              no. drogues: 0
Commnt=                              
Commnt=                              
Commnt=                              no. cross sections: 2
Filcrs= #r01.crs#
Fmtcrs= #FR#
Commnt=                              
SMhydr= #YYYYY#
SMderv= #NNNNNN#    
SMproc= #YYYYYYYYYY#
PMhydr= #NNNNNN#    
PMderv= #NNN#       
PMproc= #NNNNNNNNNN#
SHhydr= #YYYY#
SHderv= #NNNNN#  
SHproc= #YYYYYYYYYY#
SHflux= #YYYY#
PHhydr= #NNNNNN#    
PHderv= #NNN#       
PHproc= #NNNNNNNNNN#
PHflux= #NNNN# 
Online= #N#
Flmap = 522240.0 60  525120.0
Flhis = 522240.0 60  525120.0
Flpp  = 522240.0  0  525120.0
Flrst = 2880.0
Commnt=                              
Waqfil= #Y#
Flwq  = 522240.0 60   525120.0
WaqAgr= #active only#                           
Commnt=  
