*
* Deltares, Delft3D-RGFGRID Version 4.17.04.11240, Apr 13 2010, 20:40:47
* File creation date: 2011-11-08, 17:07:13
*
Coordinate System = Cartesian
      11    2116
 0 0 0
 ETA=    1   3.58290378440755710E+05   3.58270044360624219E+05   3.58249613723473565E+05   3.58228466557547101E+05   3.58206906593123742E+05
             3.58185077608388325E+05   3.58163041372541105E+05   3.58140798056682048E+05   3.58118280268487346E+05   3.58095335063174542E+05
             3.58074657598960213E+05
 ETA=    2   3.58250401503813278E+05   3.58222822409703920E+05   3.58197575245458109E+05   3.58172578316735046E+05   3.58147723444503383E+05
             3.58122982953542029E+05   3.58098359170935524E+05   3.58073859798285586E+05   3.58049486211979762E+05   3.58025238406622608E+05
             3.58004086445114342E+05
 ETA=    3   3.58200034644401341E+05   3.58169649123142241E+05   3.58141169272803003E+05   3.58113006089081289E+05   3.58085138220807421E+05
             3.58057573913608911E+05   3.58030344610890606E+05   3.58003500633575139E+05   3.57977110464699275E+05   3.57951271748154250E+05
             3.57928761173440318E+05
 ETA=    4   3.58142718088422087E+05   3.58110525778588839E+05   3.58079533831427281E+05   3.58048884418041562E+05   3.58018585005358967E+05
             3.57988652711095288E+05   3.57959118959665182E+05   3.57930030438768619E+05   3.57901447200871247E+05   3.57873447580452776E+05
             3.57847702093392552E+05
 ETA=    5   3.58070005302439327E+05   3.58035685922864883E+05   3.58002084082996531E+05   3.57968891318603011E+05   3.57936123658380297E+05
             3.57903799546878960E+05   3.57871939276854682E+05   3.57840563031411322E+05   3.57809686914408230E+05   3.57779325758195017E+05
             3.57749784609114635E+05
 ETA=    6   3.57985135851826111E+05   3.57948658758917998E+05   3.57912767235923617E+05   3.57877308489877905E+05   3.57842280547793547E+05
             3.57807691413819091E+05   3.57773556307151914E+05   3.57739893346455763E+05   3.57706717999986606E+05   3.57674044833730732E+05
             3.57641253176525119E+05
 ETA=    7   3.57895533100656350E+05   3.57857649262379564E+05   3.57820466724044818E+05   3.57783707222797384E+05   3.57747313276859291E+05
             3.57711242364587204E+05   3.57675472866183147E+05   3.57640005401841132E+05   3.57604863413863000E+05   3.57570103339762019E+05
             3.57534355428465351E+05
 ETA=    8   3.57798284540558525E+05   3.57760554766189074E+05   3.57723363436587737E+05   3.57686357943891955E+05   3.57649491985993867E+05
             3.57612719312031986E+05   3.57575998285821814E+05   3.57539291262427811E+05   3.57502565826786507E+05   3.57465811513489694E+05
             3.57426645148115058E+05
 ETA=    9   3.57696903814278659E+05   3.57660361441122252E+05   3.57624181970394275E+05   3.57587894798088586E+05   3.57551458470218757E+05
             3.57514811653407756E+05   3.57477881069892435E+05   3.57440578481587116E+05   3.57402793719238252E+05   3.57364396781172545E+05
             3.57322480162993772E+05
 ETA=   10   3.57593458929696411E+05   3.57558271108712477E+05   3.57523494609460467E+05   3.57488377160666394E+05   3.57452895452905388E+05
             3.57416997832767374E+05   3.57380607609631552E+05   3.57343618343421957E+05   3.57305887879625836E+05   3.57267242950814485E+05
             3.57225614215896057E+05
 ETA=   11   3.57495337096402247E+05   3.57461619297544472E+05   3.57428547054910450E+05   3.57395109218179248E+05   3.57361244756950182E+05
             3.57326899139956629E+05   3.57292026675225701E+05   3.57256585722105287E+05   3.57220533883823431E+05   3.57183833819796797E+05
             3.57145893308268278E+05
 ETA=   12   3.57391931707535754E+05   3.57360944271577173E+05   3.57330147032177774E+05   3.57299048590173421E+05   3.57267619699700561E+05
             3.57235840560241544E+05   3.57203705478625314E+05   3.57171220506243058E+05   3.57138400789371168E+05   3.57105277477419528E+05
             3.57072025821755989E+05
 ETA=   13   3.57276895815422409E+05   3.57250420573763316E+05   3.57222929504208092E+05   3.57195028374885733E+05   3.57166783476462064E+05
             3.57138256915555394E+05   3.57109510563293705E+05   3.57080605589850806E+05   3.57051602620788617E+05   3.57022571828842221E+05
             3.56993893445540802E+05
 ETA=   14   3.57163091878927138E+05   3.57140787567437335E+05   3.57116648325276677E+05   3.57091984754034784E+05   3.57066881702317332E+05
             3.57041422914494993E+05   3.57015696283269033E+05   3.56989793562680541E+05   3.56963808419802401E+05   3.56937841735112306E+05
             3.56912300119378488E+05
 ETA=   15   3.57047225257962418E+05   3.57026536856316961E+05   3.57004203753759444E+05   3.56981466755356931E+05   3.56958380849665147E+05
             3.56935000067758258E+05   3.56911380648442951E+05   3.56887579831910145E+05   3.56863654453930911E+05   3.56839667678042199E+05
             3.56815984856964729E+05
 ETA=   16   3.56934660134865378E+05   3.56912908614921500E+05   3.56890245389053482E+05   3.56867432166974177E+05   3.56844497114501661E+05
             3.56821463489072688E+05   3.56798354191002611E+05   3.56775189819767897E+05   3.56751985869319935E+05   3.56728756263802003E+05
             3.56705871245873976E+05
 ETA=   17   3.56821439560611849E+05   3.56796839853416081E+05   3.56772117741281691E+05   3.56747535161897249E+05   3.56723104728977312E+05
             3.56698833524974121E+05   3.56674728720030398E+05   3.56650795398661168E+05   3.56627033764347725E+05   3.56603441861774714E+05
             3.56580466408145789E+05
 ETA=   18   3.56706878624442441E+05   3.56679500502438692E+05   3.56652486197422550E+05   3.56625793144835392E+05   3.56599424389730615E+05
             3.56573381481753662E+05   3.56547669167661283E+05   3.56522292691154813E+05   3.56497254872841877E+05   3.56472559430455498E+05
             3.56448601888889854E+05
 ETA=   19   3.56592351047695847E+05   3.56563443224825198E+05   3.56535091613170167E+05   3.56507115311444446E+05   3.56479497145651432E+05
             3.56452224984991888E+05   3.56425295380114694E+05   3.56398711780443671E+05   3.56372481843213318E+05   3.56346621765886375E+05
             3.56321186198091018E+05
 ETA=   20   3.56464780796047475E+05   3.56435417706290085E+05   3.56406667667342466E+05   3.56378297604163759E+05   3.56350280396368122E+05
             3.56322593034821621E+05   3.56295216636377794E+05   3.56268133952603384E+05   3.56241326692677219E+05   3.56214782487063669E+05
             3.56188123446251091E+05
 ETA=   21   3.56334998322753934E+05   3.56305686588207493E+05   3.56277066617595905E+05   3.56248878589970409E+05   3.56221058175946819E+05
             3.56193559347461851E+05   3.56166347568846249E+05   3.56139392709893291E+05   3.56112662601160468E+05   3.56086126866602979E+05
             3.56059381895002211E+05
 ETA=   22   3.56219489350165706E+05   3.56191276608844288E+05   3.56163429758988263E+05   3.56135876188974245E+05   3.56108562968981918E+05
             3.56081463526025240E+05   3.56054569585243880E+05   3.56027880941568757E+05   3.56001396768038976E+05   3.55975117677216127E+05
             3.55949237121243728E+05
 ETA=   23   3.56132491336926643E+05   3.56106627088179928E+05   3.56079616145056905E+05   3.56052176218726439E+05   3.56024517030615825E+05
             3.55996794403587817E+05   3.55969135538476170E+05   3.55941649292821414E+05   3.55914430605185509E+05   3.55887570943411265E+05
             3.55862154766877065E+05
 ETA=   24   3.56065685414159379E+05   3.56039954870718473E+05   3.56011903540676925E+05   3.55983134435461659E+05   3.55953945251354482E+05
             3.55924574325257854E+05   3.55895221513879194E+05   3.55866058528874652E+05   3.55837237334033591E+05   3.55808908420604130E+05
             3.55782414435033803E+05
 ETA=   25   3.56000320802485046E+05   3.55972773023258487E+05   3.55942225523158326E+05   3.55911290413698764E+05   3.55880125117853866E+05
             3.55848882180973596E+05   3.55817717778393300E+05   3.55786791957988637E+05   3.55756267904517765E+05   3.55726318531187309E+05
             3.55697507785304100E+05
 ETA=   26   3.55915484712645819E+05   3.55885274705658143E+05   3.55851650453056791E+05   3.55818188718633610E+05   3.55785058758129540E+05
             3.55752412369482627E+05   3.55720382755268132E+05   3.55689074314247991E+05   3.55658550568918756E+05   3.55628829822340980E+05
             3.55599242641671386E+05
 ETA=   27   3.55815090052032785E+05   3.55781593888597155E+05   3.55745632214997255E+05   3.55710628347028221E+05   3.55676729415285867E+05
             3.55644069680334709E+05   3.55612765152842563E+05   3.55582896428364795E+05   3.55554485367159359E+05   3.55527469401394774E+05
             3.55500492765753472E+05
 ETA=   28   3.55690791747497453E+05   3.55654183774383855E+05   3.55617657706209167E+05   3.55583056318757939E+05   3.55550279724194435E+05
             3.55519273203021439E+05   3.55490047611480812E+05   3.55462693278787250E+05   3.55437391832214140E+05   3.55414425002209959E+05
             3.55393023998921504E+05
 ETA=   29   3.55491475635999290E+05   3.55456032131245767E+05   3.55422021791459119E+05   3.55390253482242406E+05   3.55360719378037611E+05
             3.55333443387984531E+05   3.55308480554892740E+05   3.55285917394833523E+05   3.55265881960888975E+05   3.55248577643234574E+05
             3.55233454061061493E+05
 ETA=   30   3.55241887999889615E+05   3.55213992700560600E+05   3.55187635364832298E+05   3.55163049618073972E+05   3.55140360124619736E+05
             3.55119672060645826E+05   3.55101082134112541E+05   3.55084687772493809E+05   3.55070597924574744E+05   3.55058951772471308E+05
             3.55049208884562366E+05
 ETA=   31   3.55003892606321431E+05   3.54983309757276496E+05   3.54964608510919672E+05   3.54947134301053709E+05   3.54930805359324091E+05
             3.54915576901750290E+05   3.54901458755478612E+05   3.54888524353262095E+05   3.54876914553757408E+05   3.54866836741304433E+05
             3.54857721428762830E+05
 ETA=   32   3.54789248186482058E+05   3.54774038508382160E+05   3.54760132701775059E+05   3.54746694128012168E+05   3.54733665081398911E+05
             3.54721021524436015E+05   3.54708749778363621E+05   3.54696836211074144E+05   3.54685271380438237E+05   3.54674075322613295E+05
             3.54662372183041065E+05
 ETA=   33   3.54594215264987666E+05   3.54583737669040565E+05   3.54573068083718303E+05   3.54562066445495700E+05   3.54550751751454489E+05
             3.54539127831366961E+05   3.54527187968206883E+05   3.54514909660102276E+05   3.54502242535568075E+05   3.54489090577081079E+05
             3.54474204665490135E+05
 ETA=   34   3.54408514024714706E+05   3.54401955261360097E+05   3.54393725770959165E+05   3.54384424898144905E+05   3.54374260882267379E+05
             3.54363349212909758E+05   3.54351716422374186E+05   3.54339298022385279E+05   3.54325930250739271E+05   3.54311337461707299E+05
             3.54294136438781745E+05
 ETA=   35   3.54246505184875627E+05   3.54242399921500590E+05   3.54236334987237584E+05   3.54228863143738243E+05   3.54220105654019455E+05
             3.54210121046819142E+05   3.54198913566676201E+05   3.54186432505349454E+05   3.54172567043718358E+05   3.54157141490165552E+05
             3.54139437871788628E+05
 ETA=   36   3.54093745216851705E+05   3.54089373050620314E+05   3.54083398012735066E+05   3.54076225067424995E+05   3.54067935547618486E+05
             3.54058577579594275E+05   3.54048165190269880E+05   3.54036675818638352E+05   3.54024047039949801E+05   3.54010177722564200E+05
             3.53994922432255582E+05
 ETA=   37   3.53937206248835020E+05   3.53930707659484295E+05   3.53923295534471807E+05   3.53915399108868267E+05   3.53907071801927290E+05
             3.53898351004664728E+05   3.53889257120551949E+05   3.53879793406523298E+05   3.53869945993706991E+05   3.53859689273774624E+05
             3.53849114412283408E+05
 ETA=   38   3.53775087216080748E+05   3.53766762616374297E+05   3.53758619117347815E+05   3.53750868714673386E+05   3.53743430873143079E+05
             3.53736250509796489E+05   3.53729301642693230E+05   3.53722587476260203E+05   3.53716139391816454E+05   3.53710017881498847E+05
             3.53704437552170712E+05
 ETA=   39   3.53605262169742549E+05   3.53596671419482038E+05   3.53589318614430726E+05   3.53582838092658960E+05   3.53577084515962633E+05
             3.53571971815480036E+05   3.53567457243721874E+05   3.53563530755038722E+05   3.53560210609104193E+05   3.53557547243074921E+05
             3.53555811781615717E+05
 ETA=   40   3.53429517741991731E+05   3.53422147720041277E+05   3.53416278931764304E+05   3.53411118892644125E+05   3.53406533818527067E+05
             3.53402469371567888E+05   3.53398940822671924E+05   3.53396026322452177E+05   3.53393861952758336E+05   3.53392634276303696E+05
             3.53392770876280614E+05
 ETA=   41   3.53232865636556584E+05   3.53225980345034855E+05   3.53219741978871636E+05   3.53213694952061574E+05   3.53207945532363956E+05
             3.53202590767021698E+05   3.53197731683402322E+05   3.53193482919381466E+05   3.53189984571870300E+05   3.53187420068679086E+05
             3.53186048541859607E+05
 ETA=   42   3.53041713426479138E+05   3.53032336218632990E+05   3.53023372975000471E+05   3.53014214495058055E+05   3.53004977556464612E+05
             3.52995733685194398E+05   3.52986544173731294E+05   3.52977475721469091E+05   3.52968607024313416E+05   3.52960033203363069E+05
             3.52951483622697589E+05
 ETA=   43   3.52877269061983563E+05   3.52862126275455230E+05   3.52848074302110821E+05   3.52833433457588311E+05   3.52818192897759669E+05
             3.52802359379089263E+05   3.52785930462093209E+05   3.52768875085622247E+05   3.52751117224755755E+05   3.52732525506841775E+05
             3.52713081454779545E+05
 ETA=   44   3.52753896850526740E+05   3.52730268037220347E+05   3.52707888365634892E+05   3.52684407997891656E+05   3.52659759313049319E+05
             3.52633941253896046E+05   3.52606964636747260E+05   3.52578838868283085E+05   3.52549572466955171E+05   3.52519184713728260E+05
             3.52489834079747205E+05
 ETA=   45   3.52653229508834193E+05   3.52620959580009163E+05   3.52588285437563958E+05   3.52554097756986099E+05   3.52518477074237424E+05
             3.52481465862091107E+05   3.52443111951430212E+05   3.52403478305684053E+05   3.52362646683439263E+05   3.52320732012751512E+05
             3.52281505353027140E+05
 ETA=   46   3.52542544112828036E+05   3.52505726184251544E+05   3.52466280519694672E+05   3.52424949095383286E+05   3.52382142016948899E+05
             3.52338065608061966E+05   3.52292787616148358E+05   3.52246270345168363E+05   3.52198385837896029E+05   3.52148932954550721E+05
             3.52101081893324037E+05
 ETA=   47   3.52427119486976124E+05   3.52388454769349773E+05   3.52346940529939311E+05   3.52303965690476296E+05   3.52259697432425746E+05
             3.52214259074387024E+05   3.52167741247235739E+05   3.52120201960272447E+05   3.52071661396797630E+05   3.52022108082754363E+05
             3.51973914966056473E+05
 ETA=   48   3.52303289095256128E+05   3.52262171221161669E+05   3.52219297391449625E+05   3.52175950787551817E+05   3.52132166025714425E+05
             3.52087999935009051E+05   3.52043537191267358E+05   3.51998892414835107E+05   3.51954216747836617E+05   3.51909724162259663E+05
             3.51867606164096156E+05
 ETA=   49   3.52186467346704390E+05   3.52142539670805621E+05   3.52098772277225857E+05   3.52055459751201211E+05   3.52012526169552759E+05
             3.51969961028272868E+05   3.51927814725532313E+05   3.51886190412547672E+05   3.51845244410811632E+05   3.51805211624698131E+05
             3.51768115005031810E+05
 ETA=   50   3.52081381962370360E+05   3.52037428032381227E+05   3.51994462775151595E+05   3.51952133326855837E+05   3.51910398449592001E+05
             3.51869269403232960E+05   3.51828812390182284E+05   3.51789139621456445E+05   3.51750400612515223E+05   3.51712781454577984E+05
             3.51677862229327788E+05
 ETA=   51   3.51974248188283062E+05   3.51934109363468539E+05   3.51893615700489900E+05   3.51853323685563519E+05   3.51813348847953428E+05
             3.51773797023855324E+05   3.51734783453244308E+05   3.51696437106607947E+05   3.51658904334802995E+05   3.51622365022407030E+05
             3.51587544671997020E+05
 ETA=   52   3.51851851586396631E+05   3.51816396027175360E+05   3.51778983718174044E+05   3.51741545500863402E+05   3.51704193833804107E+05
             3.51667009087142302E+05   3.51630063051351288E+05   3.51593430245973519E+05   3.51557199192435888E+05   3.51521502194270550E+05
             3.51485230864034093E+05
 ETA=   53   3.51688725265686691E+05   3.51657610258546425E+05   3.51623973538130638E+05   3.51590442050018406E+05   3.51557050854607485E+05
             3.51523819196373282E+05   3.51490748575439269E+05   3.51457814334063092E+05   3.51424954469986667E+05   3.51392067061785900E+05
             3.51355917894812650E+05
 ETA=   54   3.51491620383399888E+05   3.51467226332812919E+05   3.51440310605517647E+05   3.51413668459982495E+05   3.51387198307154700E+05
             3.51360819384519185E+05   3.51334465844005637E+05   3.51308070653384319E+05   3.51281537395833759E+05   3.51254697917864250E+05
             3.51223735066788795E+05
 ETA=   55   3.51274695790848637E+05   3.51262189517660590E+05   3.51246738122637558E+05   3.51230878741442342E+05   3.51214629594816361E+05
             3.51197998901273648E+05   3.51180987182612531E+05   3.51163585871588381E+05   3.51145776170667552E+05   3.51127535936574626E+05
             3.51106386774519749E+05
 ETA=   56   3.51055649697261746E+05   3.51056473812419339E+05   3.51055768258315278E+05   3.51053822345289693E+05   3.51050805783996067E+05
             3.51046870010906947E+05   3.51042146837398352E+05   3.51036749910973245E+05   3.51030786243917886E+05   3.51024401930371474E+05
             3.51017096854460833E+05
 ETA=   57   3.50844200186518952E+05   3.50853518985353294E+05   3.50864735836695938E+05   3.50875591525249241E+05   3.50886070317911915E+05
             3.50896164032116241E+05   3.50905874486987246E+05   3.50915219357934489E+05   3.50924234052106680E+05   3.50932941838095896E+05
             3.50942199854795006E+05
 ETA=   58   3.50647854159502720E+05   3.50663640714416339E+05   3.50683138438071182E+05   3.50703391488963854E+05   3.50724243674859055E+05
             3.50745541663809679E+05   3.50767127819461341E+05   3.50788836292951775E+05   3.50810488429341058E+05   3.50831889634318359E+05
             3.50855496778208006E+05
 ETA=   59   3.50464528563275642E+05   3.50490172207755095E+05   3.50519347298218578E+05   3.50549321321434632E+05   3.50579869531384727E+05
             3.50610780567882874E+05   3.50641846737933287E+05   3.50672867069861910E+05   3.50703666591456684E+05   3.50734153361756587E+05
             3.50768313835591427E+05
 ETA=   60   3.50292699271800346E+05   3.50331852349269553E+05   3.50374215564040875E+05   3.50415929632820131E+05   3.50457030370794935E+05
             3.50497539005701663E+05   3.50537460382516321E+05   3.50576790148036205E+05   3.50615522983849456E+05   3.50653647715857078E+05
             3.50695708191112615E+05
 ETA=   61   3.50163141847034858E+05   3.50205347563691670E+05   3.50255343087004032E+05   3.50304275190618995E+05   3.50352286199208698E+05
             3.50399490267034213E+05   3.50445961032450141E+05   3.50491718446867948E+05   3.50536702646450198E+05   3.50580702204858128E+05
             3.50628537859085307E+05
 ETA=   62   3.50100290891683544E+05   3.50135803688349493E+05   3.50184068050486152E+05   3.50232871323496220E+05   3.50282102384151658E+05
             3.50331634300498932E+05   3.50381317152633623E+05   3.50430962583073182E+05   3.50480309017425985E+05   3.50528920339703734E+05
             3.50581845284521056E+05
 ETA=   63   3.50084130299078824E+05   3.50119813659337815E+05   3.50167759284133150E+05   3.50216495509654225E+05   3.50265913194020686E+05
             3.50315900350983546E+05   3.50366343067599402E+05   3.50417123967092833E+05   3.50468116374356207E+05   3.50519150143881503E+05
             3.50575312276040320E+05
 ETA=   64   3.50103932065684348E+05   3.50149108477992995E+05   3.50200259875192831E+05   3.50251107157290564E+05   3.50301715135477774E+05
             3.50352145388057630E+05   3.50402459912983410E+05   3.50452730741067615E+05   3.50503056169068033E+05   3.50553577824596141E+05
             3.50607055979994126E+05
 ETA=   65   3.50155106674458773E+05   3.50210096218361752E+05   3.50262682617961778E+05   3.50314336911434366E+05   3.50365248484058015E+05
             3.50415563784921251E+05   3.50465399022426398E+05   3.50514856313241355E+05   3.50564039222949767E+05   3.50613063338318258E+05
             3.50661482521037571E+05
 ETA=   66   3.50230232174053031E+05   3.50285964267448115E+05   3.50337436847938283E+05   3.50388346583987877E+05   3.50438724010461941E+05
             3.50488585846721544E+05   3.50537934092070558E+05   3.50586764499589801E+05   3.50635076078590937E+05   3.50682874949356657E+05
             3.50728207863761752E+05
 ETA=   67   3.50302749908146681E+05   3.50354393165543908E+05   3.50404576425836072E+05   3.50454978307653742E+05   3.50505371083833103E+05
             3.50555579325915372E+05   3.50605451663130603E+05   3.50654850623137492E+05   3.50703647913523600E+05   3.50751710332519491E+05
             3.50796808442149137E+05
 ETA=   68   3.50348909326061548E+05   3.50399646986758977E+05   3.50451003148368851E+05   3.50502949968881905E+05   3.50555205774095200E+05
             3.50607557564158167E+05   3.50659822922807129E+05   3.50711834806503146E+05   3.50763430626783113E+05   3.50814421493756701E+05
             3.50862398094600183E+05
 ETA=   69   3.50368080951969954E+05   3.50421516287554929E+05   3.50475584214555391E+05   3.50530479965369217E+05   3.50585897136956919E+05
             3.50641650289532088E+05   3.50697617000240250E+05   3.50753712808121054E+05   3.50809879053452925E+05   3.50866052202371182E+05
             3.50918632368216757E+05
 ETA=   70   3.50364945582839544E+05   3.50423762676641520E+05   3.50480864974352706E+05   3.50538476293148415E+05   3.50596475785223418E+05
             3.50654861984637741E+05   3.50713664884627389E+05   3.50772930463748635E+05   3.50832723117439367E+05   3.50893109689020261E+05
             3.50947180207486439E+05
 ETA=   71   3.50342831922240497E+05   3.50404760088066745E+05   3.50462016006607679E+05   3.50519301215994405E+05   3.50576848437072185E+05
             3.50634772777545906E+05   3.50693119955288013E+05   3.50751901754005114E+05   3.50811114089089853E+05   3.50870727145812940E+05
             3.50921241300985625E+05
 ETA=   72   3.50314215163046494E+05   3.50370433571420028E+05   3.50420465581798169E+05   3.50470371406827471E+05   3.50520471137516608E+05
             3.50570882674391265E+05   3.50621661739336269E+05   3.50672845222833159E+05   3.50724469013714581E+05   3.50776563775221701E+05
             3.50820469397598878E+05
 ETA=   73   3.50271497948286240E+05   3.50316334962602996E+05   3.50355224773457274E+05   3.50393674065324711E+05   3.50431998613481817E+05
             3.50470330456558149E+05   3.50508716880597349E+05   3.50547166513005621E+05   3.50585671293682011E+05   3.50624204547949659E+05
             3.50657243744292471E+05
 ETA=   74   3.50223678200004739E+05   3.50255807125736028E+05   3.50284044141295191E+05   3.50311651051442022E+05   3.50338665224682656E+05
             3.50365103924294701E+05   3.50390950810367591E+05   3.50416158044360287E+05   3.50440651213460544E+05   3.50464329281600716E+05
             3.50484084318520676E+05
 ETA=   75   3.50172675023615826E+05   3.50190464517075045E+05   3.50206298923663737E+05   3.50221476375375525E+05   3.50235897234989738E+05
             3.50249431754739198E+05   3.50261978088727337E+05   3.50273478846999933E+05   3.50283925595806679E+05   3.50293356124323793E+05
             3.50300075745474081E+05
 ETA=   76   3.50106952168003656E+05   3.50107638060344092E+05   3.50108992252779834E+05   3.50109899438756460E+05   3.50110184620439832E+05
             3.50109751513377880E+05   3.50108526031529938E+05   3.50106437687634374E+05   3.50103413618306979E+05   3.50099378210873052E+05
             3.50095088624812081E+05
 ETA=   77   3.50026399607806699E+05   3.50006648500183073E+05   3.49989849791462882E+05   3.49972891061709961E+05   3.49955765063533501E+05
             3.49938544339217537E+05   3.49921309926069400E+05   3.49904131657996390E+05   3.49887061124943779E+05   3.49870132380527619E+05
             3.49858614376451704E+05
 ETA=   78   3.49955211706902483E+05   3.49915871412197768E+05   3.49879983290516073E+05   3.49843931385343894E+05   3.49808016332792875E+05
             3.49772473086019629E+05   3.49737528174455976E+05   3.49703408390363911E+05   3.49670340329806495E+05   3.49638557713152899E+05
             3.49617863832215953E+05
 ETA=   79   3.49887937992744264E+05   3.49839257268759015E+05   3.49793371750183753E+05   3.49746655533237790E+05   3.49699405586894602E+05
             3.49651748308627284E+05   3.49603729908825364E+05   3.49555356597038335E+05   3.49506613878855715E+05   3.49457490227365401E+05
             3.49418240796368860E+05
 ETA=   80   3.49836141172433330E+05   3.49785302937812754E+05   3.49736363873711613E+05   3.49686583319405618E+05   3.49635957013086067E+05
             3.49584460010904819E+05   3.49532031401321001E+05   3.49478561430017930E+05   3.49423880653035827E+05   3.49367761558979168E+05
             3.49313558883228165E+05
 ETA=   81   3.49790110703691083E+05   3.49740809467748215E+05   3.49691453397991601E+05   3.49641728435404424E+05   3.49591624104137067E+05
             3.49541156925539719E+05   3.49490366145376698E+05   3.49439303808866360E+05   3.49388027544827259E+05   3.49336608288384799E+05
             3.49285543537530291E+05
 ETA=   82   3.49749127494966029E+05   3.49704434392361669E+05   3.49656507768110372E+05   3.49608286009534844E+05   3.49559917405703920E+05
             3.49511557534004620E+05   3.49463386501740082E+05   3.49415616036597989E+05   3.49368498038130929E+05   3.49322348326068430E+05
             3.49278251641206851E+05
 ETA=   83   3.49714267037051730E+05   3.49672529286231380E+05   3.49624915959016827E+05   3.49576818139495328E+05   3.49528470943085209E+05
             3.49480112303995353E+05   3.49432001858169097E+05   3.49384433614745503E+05   3.49337753759376763E+05   3.49292398395408352E+05
             3.49250087892597017E+05
 ETA=   84   3.49677675132905773E+05   3.49633455825554789E+05   3.49583186194658978E+05   3.49532687055702787E+05   3.49482187168767909E+05
             3.49431913008229632E+05   3.49382103641328460E+05   3.49333018746591639E+05   3.49284949667559122E+05   3.49238249089366174E+05
             3.49193939628152060E+05
 ETA=   85   3.49633575715607090E+05   3.49582592651284649E+05   3.49528853171579132E+05   3.49475893781442661E+05   3.49423634667067963E+05
             3.49372024732845835E+05   3.49321061354498495E+05   3.49270807324021938E+05   3.49221415219523944E+05   3.49173179371574428E+05
             3.49125075084021839E+05
 ETA=   86   3.49559924049990834E+05   3.49505059613213176E+05   3.49450649632511719E+05   3.49397510792158719E+05   3.49345408306972298E+05
             3.49294164548185247E+05   3.49243640733682783E+05   3.49193721742005437E+05   3.49144311475293129E+05   3.49095370275149529E+05
             3.49042943225536903E+05
 ETA=   87   3.49456559900177584E+05   3.49405772805021843E+05   3.49356035850189801E+05   3.49306808335148031E+05   3.49258050933337712E+05
             3.49209672057222109E+05   3.49161549253308738E+05   3.49113531731819618E+05   3.49065426932522794E+05   3.49016974665258487E+05
             3.48962301995803893E+05
 ETA=   88   3.49342246905496111E+05   3.49295518714266887E+05   3.49250535187320434E+05   3.49205426689679502E+05   3.49160216155661736E+05
             3.49114826724554354E+05   3.49069106389640656E+05   3.49022825249188638E+05   3.48975658172344149E+05   3.48927166409071127E+05
             3.48872056791330338E+05
 ETA=   89   3.49236682695647236E+05   3.49191080514189089E+05   3.49148544218296360E+05   3.49105869510580902E+05   3.49062821054581902E+05
             3.49019189489360782E+05   3.48974772848370427E+05   3.48929354560974403E+05   3.48882690799032513E+05   3.48834513241262001E+05
             3.48781699941831350E+05
 ETA=   90   3.49127681508403504E+05   3.49086135555107729E+05   3.49046043976224028E+05   3.49005583317039011E+05   3.48964543940056406E+05
             3.48922753599936259E+05   3.48880072772549989E+05   3.48836375969719375E+05   3.48791534244024195E+05   3.48745407664185856E+05
             3.48696302012358443E+05
 ETA=   91   3.48994435529881157E+05   3.48962982362524723E+05   3.48928769444129837E+05   3.48893150542808115E+05   3.48856364070803684E+05
             3.48818570313839824E+05   3.48779863152547914E+05   3.48740276850952650E+05   3.48699796646081668E+05   3.48658384581807361E+05
             3.48615188186222687E+05
 ETA=   92   3.48860395083845709E+05   3.48839181700446527E+05   3.48813190423762542E+05   3.48785039630354906E+05   3.48754968332144956E+05
             3.48723210707761464E+05   3.48690006511725485E+05   3.48655600152413186E+05   3.48620231001724256E+05   3.48584126810817164E+05
             3.48547242572607182E+05
 ETA=   93   3.48713563835992187E+05   3.48697331348984153E+05   3.48676809279074601E+05   3.48654638222835958E+05   3.48630951596377068E+05
             3.48605909326470457E+05   3.48579694717990176E+05   3.48552509404230979E+05   3.48524566229024844E+05   3.48496089804659714E+05
             3.48467317819302320E+05
 ETA=   94   3.48561454825717607E+05   3.48546161483869189E+05   3.48526935504387424E+05   3.48506982197237608E+05   3.48486455370286712E+05
             3.48465534881892905E+05   3.48444431017794413E+05   3.48423389772860566E+05   3.48402699523920775E+05   3.48382706934349670E+05
             3.48363790644899302E+05
 ETA=   95   3.48401184164705919E+05   3.48383268998558691E+05   3.48361517569351476E+05   3.48340193011507450E+05   3.48319542122573883E+05
             3.48299821539816796E+05   3.48281297358195181E+05   3.48264248255406099E+05   3.48248972247898229E+05   3.48235802101514419E+05
             3.48225075402810413E+05
 ETA=   96   3.48236427248988533E+05   3.48213612537434616E+05   3.48188860227936064E+05   3.48166332059824839E+05   3.48146196029446030E+05
             3.48128612235800305E+05   3.48113723668543447E+05   3.48101648625957605E+05   3.48092483109392226E+05   3.48086324406236585E+05
             3.48083550693393161E+05
 ETA=   97   3.48062707289103477E+05   3.48039529398496845E+05   3.48018716250253434E+05   3.48000963549148932E+05   3.47985911221434188E+05
             3.47973288317089318E+05   3.47962945340498060E+05   3.47954877525346179E+05   3.47949241403426218E+05   3.47946355812835740E+05
             3.47947204028957873E+05
 ETA=   98   3.47838102821697597E+05   3.47824412755759957E+05   3.47812698047143698E+05   3.47802538453505258E+05   3.47793993734811491E+05
             3.47787114443689701E+05   3.47781943177137000E+05   3.47778516179181228E+05   3.47776873989709886E+05   3.47777085860425723E+05
             3.47779805423046753E+05
 ETA=   99   3.47614954527948925E+05   3.47611943505356321E+05   3.47608966645000095E+05   3.47606334695652185E+05   3.47604308692563500E+05
             3.47603080904947477E+05   3.47602796250966669E+05   3.47603563835882698E+05   3.47605456498274871E+05   3.47608492676919908E+05
             3.47612963619283517E+05
 ETA=  100   3.47398783634574676E+05   3.47400946743003326E+05   3.47403175562664634E+05   3.47405699935010285E+05   3.47408549212081882E+05
             3.47411759300807433E+05   3.47415370705886453E+05   3.47419428792686260E+05   3.47423984726421360E+05   3.47429096979710099E+05
             3.47435210113229230E+05
 ETA=  101   3.47178273998511431E+05   3.47184213137524901E+05   3.47190378093368723E+05   3.47196796543951728E+05   3.47203364580478985E+05
             3.47210013146330253E+05   3.47216694329075166E+05   3.47223379412016599E+05   3.47230067688315583E+05   3.47236807485591911E+05
             3.47244356577788363E+05
 ETA=  102   3.46952579860641796E+05   3.46964892765924975E+05   3.46976690503579797E+05   3.46988102539706684E+05   3.46999081601711630E+05
             3.47009584556591522E+05   3.47019575654283515E+05   3.47029026999897033E+05   3.47037911335497047E+05   3.47046180431712244E+05
             3.47054789831464994E+05
 ETA=  103   3.46718063887693628E+05   3.46738778595806914E+05   3.46758657657856587E+05   3.46777369111699576E+05   3.46794947676241398E+05
             3.46811384352625930E+05   3.46826613021391677E+05   3.46840503151746059E+05   3.46852858119014069E+05   3.46863421844474447E+05
             3.46873392058790661E+05
 ETA=  104   3.46487223469061835E+05   3.46517372756621102E+05   3.46547959811986831E+05   3.46576956941357756E+05   3.46604190392349323E+05
             3.46629484004592698E+05   3.46652655344139610E+05   3.46673510612120852E+05   3.46691837557737599E+05   3.46707394198083668E+05
             3.46721675315060595E+05
 ETA=  105   3.46269166859766759E+05   3.46307883801148215E+05   3.46348800534168782E+05   3.46387864914084028E+05   3.46425001463226043E+05
             3.46460097561284783E+05   3.46493000098917342E+05   3.46523509115641820E+05   3.46551356426102866E+05   3.46576135019836540E+05
             3.46599349561524112E+05
 ETA=  106   3.46110122494698851E+05   3.46148908964888076E+05   3.46193094010991161E+05   3.46236069529958826E+05   3.46277813407990208E+05
             3.46318261850751413E+05   3.46357284185627475E+05   3.46394653755398234E+05   3.46429998090983310E+05   3.46462701668040594E+05
             3.46494511620587029E+05
 ETA=  107   3.46032428362802719E+05   3.46065667131292226E+05   3.46107497081492387E+05   3.46149576594863087E+05   3.46191737615639518E+05
             3.46233793266918336E+05   3.46275521996472322E+05   3.46316664654925815E+05   3.46356920784168935E+05   3.46395927613098233E+05
             3.46436326413011004E+05
 ETA=  108   3.45994607886882266E+05   3.46027568960861478E+05   3.46068696765355591E+05   3.46110253892088658E+05   3.46152156066410244E+05
             3.46194307439457916E+05   3.46236587794180668E+05   3.46278852558569459E+05   3.46320931785831519E+05   3.46362612167770974E+05
             3.46405899677087844E+05
 ETA=  109   3.45982875166486774E+05   3.46021228753822274E+05   3.46063969547625282E+05   3.46106523091263545E+05   3.46148988165935385E+05
             3.46191408087171672E+05   3.46233777224828489E+05   3.46276052924175805E+05   3.46318164637870039E+05   3.46360011549479153E+05
             3.46401482729403593E+05
 ETA=  110   3.45983645900234289E+05   3.46023645220054837E+05   3.46065017853428435E+05   3.46106931671038968E+05   3.46149303484780423E+05
             3.46192068739857350E+05   3.46235175222138059E+05   3.46278583110984939E+05   3.46322267341496714E+05   3.46366217174445512E+05
             3.46408191420296149E+05
 ETA=  111   3.45968393551822985E+05   3.46004181287276384E+05   3.46041692768927081E+05   3.46080860956024320E+05   3.46121296078718733E+05
             3.46162787375328538E+05   3.46205225969648513E+05   3.46248572510237398E+05   3.46292844977310800E+05   3.46338112891187833E+05
             3.46381548992355703E+05
 ETA=  112   3.45912468022522575E+05   3.45946131067941198E+05   3.45980736176216626E+05   3.46016717595944821E+05   3.46053849750392081E+05
             3.46091975890676200E+05   3.46130983919465682E+05   3.46170795485385694E+05   3.46211359238568228E+05   3.46252639537574025E+05
             3.46292744616742886E+05
 ETA=  113   3.45804728368357115E+05   3.45838989631270757E+05   3.45873229755241424E+05   3.45908302770589013E+05   3.45944118706249516E+05
             3.45980590195496217E+05   3.46017623969735985E+05   3.46055122629156103E+05   3.46092986461410124E+05   3.46131106044136570E+05
             3.46168265842682216E+05
 ETA=  114   3.45672443235960032E+05   3.45708626239696052E+05   3.45744195600547653E+05   3.45780315622854920E+05   3.45816883436545264E+05
             3.45853798323017196E+05   3.45890951424972911E+05   3.45928229405818740E+05   3.45965520405645599E+05   3.46002711721012543E+05
             3.46038574378363439E+05
 ETA=  115   3.45545506879436201E+05   3.45585075865227380E+05   3.45623219588350155E+05   3.45661408121667744E+05   3.45699615236841841E+05
             3.45737801460207207E+05   3.45775911255738698E+05   3.45813878067070094E+05   3.45851628378039575E+05   3.45889069554885675E+05
             3.45924427433679928E+05
 ETA=  116   3.45439072195521207E+05   3.45480307687457651E+05   3.45519565987718699E+05   3.45558582619997382E+05   3.45597499629652128E+05
             3.45636380322486802E+05   3.45675236230664072E+05   3.45714043124564982E+05   3.45752749652788625E+05   3.45791264171142597E+05
             3.45827162057858950E+05
 ETA=  117   3.45350356936319498E+05   3.45389111156210012E+05   3.45426997342841350E+05   3.45465325035513786E+05   3.45503994534849655E+05
             3.45542920659774391E+05   3.45582023086982605E+05   3.45621225961065211E+05   3.45660464625365275E+05   3.45699682776389294E+05
             3.45736028640547651E+05
 ETA=  118   3.45263699081857863E+05   3.45300527903344017E+05   3.45336795667268627E+05   3.45373799457895802E+05   3.45411256818920316E+05
             3.45449023379498336E+05   3.45487028868497349E+05   3.45525243000858929E+05   3.45563659546813229E+05   3.45602276276540651E+05
             3.45637709190593858E+05
 ETA=  119   3.45178668020407204E+05   3.45211268080555252E+05   3.45242170013475639E+05   3.45273613094637403E+05   3.45305699019019259E+05
             3.45338510156170756E+05   3.45372093214172754E+05   3.45406464159129129E+05   3.45441614562364586E+05   3.45477507428324257E+05
             3.45510515055184602E+05
 ETA=  120   3.45104620634661405E+05   3.45129128893057117E+05   3.45151492156428401E+05   3.45174354262653389E+05   3.45197941572210169E+05
             3.45222389816435345E+05   3.45247817443669890E+05   3.45274352307689202E+05   3.45302142546094896E+05   3.45331355568647385E+05
             3.45359539387275116E+05
 ETA=  121   3.45014842348619364E+05   3.45030166769496282E+05   3.45044416011712572E+05   3.45059126795020187E+05   3.45074359264537052E+05
             3.45090161583067093E+05   3.45106586122525274E+05   3.45123701883236237E+05   3.45141605284347606E+05   3.45160424649786612E+05
             3.45179275254938751E+05
 ETA=  122   3.44891101349117700E+05   3.44898535762116895E+05   3.44905968311447010E+05   3.44913776448532648E+05   3.44921849028988217E+05
             3.44930109274221584E+05   3.44938480452906166E+05   3.44946867042503669E+05   3.44955141371318721E+05   3.44963128596459283E+05
             3.44970387159277510E+05
 ETA=  123   3.44740842712129292E+05   3.44742076202632685E+05   3.44743603165417386E+05   3.44745410000869480E+05   3.44747369341597136E+05
             3.44749360318854218E+05   3.44751260723221698E+05   3.44752941243127920E+05   3.44754260645588336E+05   3.44755060534434742E+05
             3.44755139093984966E+05
 ETA=  124   3.44577666164577764E+05   3.44574764321517257E+05   3.44572128569157154E+05   3.44569682835340675E+05   3.44567378327393613E+05
             3.44565160447277711E+05   3.44562971336981282E+05   3.44560751172539196E+05   3.44558440015482658E+05   3.44555981086876767E+05
             3.44553366837862704E+05
 ETA=  125   3.44416371164212469E+05   3.44410615663072851E+05   3.44405183237746533E+05   3.44399898136729840E+05   3.44394763495746185E+05
             3.44389787398021144E+05   3.44384984217388788E+05   3.44380373383323895E+05   3.44375977604007232E+05   3.44371822419009171E+05
             3.44368089598072984E+05
 ETA=  126   3.44255781533185916E+05   3.44247209085002076E+05   3.44239225407928345E+05   3.44231405910318659E+05   3.44223778834643133E+05
             3.44216362312405370E+05   3.44209176239445456E+05   3.44202248967842839E+05   3.44195621780438931E+05   3.44189356749624480E+05
             3.44183880963428528E+05
 ETA=  127   3.44099548436455603E+05   3.44087952009132947E+05   3.44077466660839273E+05   3.44067077385501703E+05   3.44056741545315308E+05
             3.44046461629075056E+05   3.44036273899529828E+05   3.44026242216710292E+05   3.44016453478248499E+05   3.44007018565869716E+05
             3.43998462644972838E+05
 ETA=  128   3.43947270418419328E+05   3.43932321576866845E+05   3.43918698268298816E+05   3.43904915953609569E+05   3.43890930368267000E+05
             3.43876751359415532E+05   3.43862417856542044E+05   3.43847986673526058E+05   3.43833529429774673E+05   3.43819136960994743E+05
             3.43805054980066488E+05
 ETA=  129   3.43805511742771720E+05   3.43787127142863465E+05   3.43769970791861822E+05   3.43752188325639756E+05   3.43733779413464537E+05
             3.43714721235473524E+05   3.43694992848027148E+05   3.43674581298183708E+05   3.43653478425110865E+05   3.43631671555190347E+05
             3.43609300315094937E+05
 ETA=  130   3.43668177936876193E+05   3.43646120995008270E+05   3.43625229789071018E+05   3.43602996960537857E+05   3.43579549980127718E+05
             3.43554950695102918E+05   3.43529197246845753E+05   3.43502229235920124E+05   3.43473934413460258E+05   3.43444161553931946E+05
             3.43414702953583095E+05
 ETA=  131   3.43549569163388573E+05   3.43522261835323239E+05   3.43496285308535618E+05   3.43468530498123844E+05   3.43439084808859508E+05
             3.43408053845555871E+05   3.43375557229103637E+05   3.43341722126621928E+05   3.43306677032845560E+05   3.43270560777994222E+05
             3.43238111863092228E+05
 ETA=  132   3.43447510099632142E+05   3.43414212654410978E+05   3.43381415791417006E+05   3.43346917221647222E+05   3.43311008921708097E+05
             3.43273897378259629E+05   3.43235756173494505E+05   3.43196741438418627E+05   3.43156997056137014E+05   3.43116677564134239E+05
             3.43081682606705406E+05
 ETA=  133   3.43357870822930010E+05   3.43323172092699388E+05   3.43287405551945325E+05   3.43250055165813712E+05   3.43211524094795750E+05
             3.43172065862402553E+05   3.43131834338022047E+05   3.43090907598617487E+05   3.43049301294585923E+05   3.43006993911907135E+05
             3.42969243234940397E+05
 ETA=  134   3.43301039678485424E+05   3.43266674253102043E+05   3.43230273815376102E+05   3.43192772145519673E+05   3.43154381562515278E+05
             3.43115286179359537E+05   3.43075649958172697E+05   3.43035612243729935E+05   3.42995284310186049E+05   3.42954759185400850E+05
             3.42918181627504353E+05
 ETA=  135   3.43257942747632507E+05   3.43223385683647823E+05   3.43186707733850868E+05   3.43149419050731405E+05   3.43111713908697129E+05
             3.43073767850292614E+05   3.43035753509361297E+05   3.42997843344299705E+05   3.42960211865385179E+05   3.42923046810659347E+05
             3.42889245588307560E+05
 ETA=  136   3.43226459180149657E+05   3.43190068013037788E+05   3.43152399205254333E+05   3.43114515146914520E+05   3.43076554332346306E+05
             3.43038654379251064E+05   3.43000958652830159E+05   3.42963619971978245E+05   3.42926805016443890E+05   3.42890709391767741E+05
             3.42856489412568742E+05
 ETA=  137   3.43198954914060829E+05   3.43158224787945161E+05   3.43117115742897789E+05   3.43076281813793059E+05   3.43035746995907335E+05
             3.42995550992265751E+05   3.42955739942144777E+05   3.42916363720615511E+05   3.42877474233123008E+05   3.42839134317097312E+05
             3.42800469793597120E+05
 ETA=  138   3.43153008803839446E+05   3.43109812515826779E+05   3.43065667485145968E+05   3.43022295528826071E+05   3.42979608769669372E+05
             3.42937538102352293E+05   3.42896021588145348E+05   3.42854997116514482E+05   3.42814393525599618E+05   3.42774129921728687E+05
             3.42731430630396528E+05
 ETA=  139   3.43054366875529231E+05   3.43018779671986413E+05   3.42978835022420564E+05   3.42939199908891344E+05   3.42899825455562561E+05
             3.42860655632777838E+05   3.42821627520232578E+05   3.42782662469571631E+05   3.42743651609761408E+05   3.42704441150517843E+05
             3.42660623420541466E+05
 ETA=  140   3.42888625833435566E+05   3.42868039760290354E+05   3.42841548238297284E+05   3.42814038736645889E+05   3.42785604895513097E+05
             3.42756321938075009E+05   3.42726252329848416E+05   3.42695438327542914E+05   3.42663889313665859E+05   3.42631568317368510E+05
             3.42593710766110918E+05
 ETA=  141   3.42688200149444107E+05   3.42677128760545980E+05   3.42662894539851171E+05   3.42648007196228427E+05   3.42632449319661362E+05
             3.42616202862214297E+05   3.42599255733849364E+05   3.42581603480148653E+05   3.42563253160025517E+05   3.42544239991128154E+05
             3.42521545774128172E+05
 ETA=  142   3.42482278597570723E+05   3.42477205237942515E+05   3.42471425883694086E+05   3.42465533562674595E+05   3.42459481121280347E+05
             3.42453217431819357E+05   3.42446686643763969E+05   3.42439826035049045E+05   3.42432567150485411E+05   3.42424851022334187E+05
             3.42415360976564349E+05
 ETA=  143   3.42296280712634209E+05   3.42296974193295522E+05   3.42297782076061703E+05   3.42298397802214429E+05   3.42298805295671569E+05
             3.42298984634653025E+05   3.42298913633763848E+05   3.42298571696100291E+05   3.42297946333030122E+05   3.42297044498893316E+05
             3.42295686990189250E+05
 ETA=  144   3.42117789443395333E+05   3.42123151602996397E+05   3.42128962393925700E+05   3.42134593308401934E+05   3.42140045106909471E+05
             3.42145317300432653E+05   3.42150406700628111E+05   3.42155306633565691E+05   3.42160004741417768E+05   3.42164477060938603E+05
             3.42168966208440077E+05
 ETA=  145   3.41941050810564309E+05   3.41949124518194702E+05   3.41958191848669958E+05   3.41967367277691374E+05   3.41976657404497499E+05
             3.41986066077290452E+05   3.41995590656137851E+05   3.42005220811132400E+05   3.42014935953591135E+05   3.42024696501671511E+05
             3.42035045747072902E+05
 ETA=  146   3.41757189959650335E+05   3.41768004870979232E+05   3.41780789011998801E+05   3.41794213857324910E+05   3.41808239625569666E+05
             3.41822825262425235E+05   3.41837923187791486E+05   3.41853479291880329E+05   3.41869432502386218E+05   3.41885707708420639E+05
             3.41903083071356115E+05
 ETA=  147   3.41569353552387678E+05   3.41586011132226326E+05   3.41605444029048318E+05   3.41625750778285670E+05   3.41646833339648379E+05
             3.41668605729117931E+05   3.41690983873651945E+05   3.41713885052090336E+05   3.41737229941161524E+05   3.41760941145065299E+05
             3.41785893550547014E+05
 ETA=  148   3.41394182029522548E+05   3.41420309795880050E+05   3.41448095911644865E+05   3.41476165463462996E+05   3.41504503178301791E+05
             3.41533097817313042E+05   3.41561942570230050E+05   3.41591039244555752E+05   3.41620402313453786E+05   3.41650055952212657E+05
             3.41680690254374000E+05
 ETA=  149   3.41234398539308459E+05   3.41267632089903695E+05   3.41300654576075380E+05   3.41333558581769816E+05   3.41366445190779225E+05
             3.41399390582582506E+05   3.41432455660292471E+05   3.41465690897135471E+05   3.41499141867959406E+05   3.41532849817821581E+05
             3.41567183593237947E+05
 ETA=  150   3.41096902646862727E+05   3.41132200135725143E+05   3.41166870046764903E+05   3.41201595161848410E+05   3.41236445902591338E+05
             3.41271469258022262E+05   3.41306703113856958E+05   3.41342181745252572E+05   3.41377942418389895E+05   3.41414026643624820E+05
             3.41450544775459974E+05
 ETA=  151   3.40973093386939319E+05   3.41007587225214462E+05   3.41042130216896010E+05   3.41077041411766608E+05   3.41112314266140689E+05
             3.41147945012109645E+05   3.41183939323209284E+05   3.41220314318763674E+05   3.41257101716280740E+05   3.41294339997187024E+05
             3.41331809073670418E+05
 ETA=  152   3.40849687059397576E+05   3.40882931252961454E+05   3.40916812790822878E+05   3.40951281187159184E+05   3.40986310028268490E+05
             3.41021868983731256E+05   3.41057925144019828E+05   3.41094444612274994E+05   3.41131394785377779E+05   3.41168731729420542E+05
             3.41205761213231075E+05
 ETA=  153   3.40727460385326180E+05   3.40759441055192088E+05   3.40792263276162907E+05   3.40825889923310373E+05   3.40860249148272502E+05
             3.40895257440532034E+05   3.40930821533415699E+05   3.40966842430156132E+05   3.41003220076961268E+05   3.41039844939149043E+05
             3.41075507604544633E+05
 ETA=  154   3.40612842076270899E+05   3.40643024673325126E+05   3.40674045920556004E+05   3.40706100988290098E+05   3.40738989127731882E+05
             3.40772568022569641E+05   3.40806733631654992E+05   3.40841407714248286E+05   3.40876527342047310E+05   3.40912023124481551E+05
             3.40946081632644811E+05
 ETA=  155   3.40506339304065565E+05   3.40532574084792228E+05   3.40558991966546280E+05   3.40586460027569439E+05   3.40614939345399733E+05
             3.40644421919318207E+05   3.40674904632741178E+05   3.40706385910201876E+05   3.40738866716890770E+05   3.40772343853929138E+05
             3.40804781822356686E+05
 ETA=  156   3.40411272687750519E+05   3.40431721325948543E+05   3.40451935329120955E+05   3.40473164326679776E+05   3.40495429902644595E+05
             3.40518762826258258E+05   3.40543213363252813E+05   3.40568861771076510E+05   3.40595828154872230E+05   3.40624278928291751E+05
             3.40653112461731071E+05
 ETA=  157   3.40304486285708263E+05   3.40320536797019769E+05   3.40336380130238831E+05   3.40352924643135921E+05   3.40370106483027921E+05
             3.40387906942414236E+05   3.40406343775581336E+05   3.40425472869593825E+05   3.40445392214724561E+05   3.40466238418803900E+05
             3.40488024060812953E+05
 ETA=  158   3.40174084552910703E+05   3.40187923765577783E+05   3.40201591090096976E+05   3.40215615201207343E+05   3.40229914496364130E+05
             3.40244427029189887E+05   3.40259083109251980E+05   3.40273789432981634E+05   3.40288414951812068E+05   3.40302770528931287E+05
             3.40316620569183200E+05
 ETA=  159   3.40031824601118511E+05   3.40044543982091942E+05   3.40057085683879617E+05   3.40069786431687360E+05   3.40082543090598367E+05
             3.40095230629496917E+05   3.40107700540908438E+05   3.40119779913573060E+05   3.40131267746082216E+05   3.40141925839641248E+05
             3.40150704210282653E+05
 ETA=  160   3.39880905635435600E+05   3.39892115708008409E+05   3.39902786976303032E+05   3.39913344942994008E+05   3.39923739678710583E+05
             3.39933907664901169E+05   3.39943764519900375E+05   3.39953203592366655E+05   3.39962096227443544E+05   3.39970289625909005E+05
             3.39976334374664584E+05
 ETA=  161   3.39724568435753696E+05   3.39730631413519615E+05   3.39735537111198937E+05   3.39740053745890385E+05   3.39744342159323220E+05
             3.39748489541503950E+05   3.39752540329952724E+05   3.39756514716386155E+05   3.39760420852548559E+05   3.39764262772929273E+05
             3.39767198900378484E+05
 ETA=  162   3.39579165688506560E+05   3.39574484699838737E+05   3.39568927726247581E+05   3.39563089908563066E+05   3.39557298927213997E+05
             3.39551746731156833E+05   3.39546563296562526E+05   3.39541855011579813E+05   3.39537726891780156E+05   3.39534299146945588E+05
             3.39532095965702552E+05
 ETA=  163   3.39465861546369793E+05   3.39447451636509562E+05   3.39430106911407493E+05   3.39413207081788045E+05   3.39396820907988236E+05
             3.39381022820841405E+05   3.39365899618051481E+05   3.39351550482799124E+05   3.39338085396174865E+05   3.39325626662008697E+05
             3.39315737010027980E+05
 ETA=  164   3.39379779867039935E+05   3.39347692322739866E+05   3.39318981144648220E+05   3.39291553689122491E+05   3.39265211562619719E+05
             3.39239880231139483E+05   3.39215532324539381E+05   3.39192148689870199E+05   3.39169694938110304E+05   3.39148111864669889E+05
             3.39128912242851395E+05
 ETA=  165   3.39313619728013058E+05   3.39269894746876264E+05   3.39231691690065840E+05   3.39195187204499205E+05   3.39159937982256990E+05
             3.39125669740320649E+05   3.39092201106240449E+05   3.39059403899879777E+05   3.39027184882029542E+05   3.38995498044211476E+05
             3.38966219102471834E+05
 ETA=  166   3.39262325328516599E+05   3.39207894130653061E+05   3.39161418521702872E+05   3.39116718533961277E+05   3.39072835189077887E+05
             3.39029352757268876E+05   3.38986096638943534E+05   3.38942999146024114E+05   3.38900030418928480E+05   3.38857165477747796E+05
             3.38817887197561387E+05
 ETA=  167   3.39225083940105687E+05   3.39160490357851901E+05   3.39103609856089868E+05   3.39048030319999962E+05   3.38993014468925598E+05
             3.38938270995640487E+05   3.38883676914871670E+05   3.38829186213034554E+05   3.38774795228484494E+05   3.38720542445999512E+05
             3.38672594602265221E+05
 ETA=  168   3.39201642669852823E+05   3.39131151146491116E+05   3.39067205440487480E+05   3.39003696851515677E+05   3.38940096000948281E+05
             3.38876093648039910E+05   3.38811542631356686E+05   3.38746401827901311E+05   3.38680703644042660E+05   3.38614549096041592E+05
             3.38557181375737942E+05
 ETA=  169   3.39177024697025947E+05   3.39104609608633327E+05   3.39037920540450898E+05   3.38970967481625266E+05   3.38903741470490873E+05
             3.38836122197098623E+05   3.38767958459758083E+05   3.38699084966507624E+05   3.38629320818088891E+05   3.38558494086911378E+05
             3.38498804013060115E+05
 ETA=  170   3.39158012679817388E+05   3.39088791507981427E+05   3.39024909345950233E+05   3.38960875728573883E+05   3.38897078659531544E+05
             3.38833812738091685E+05   3.38771310737812484E+05   3.38709761513496167E+05   3.38649318475203530E+05   3.38590139580937335E+05
             3.38544451804778713E+05
 ETA=  171   3.39159004117090779E+05   3.39101380760576052E+05   3.39047326271943399E+05   3.38993900925384834E+05   3.38941659861203341E+05
             3.38890860619386192E+05   3.38841636067084619E+05   3.38794062107222155E+05   3.38748186954651144E+05   3.38704070063614403E+05
             3.38670157323348278E+05
 ETA=  172   3.39213379032497818E+05   3.39166773389790265E+05   3.39122758717790886E+05   3.39079353842330980E+05   3.39036739155705960E+05
             3.38994969855676405E+05   3.38954057053283090E+05   3.38913996516162180E+05   3.38874777180105040E+05   3.38836396142465353E+05
             3.38804057606177288E+05
 ETA=  173   3.39298832673158089E+05   3.39255509628702712E+05   3.39213736171505589E+05   3.39172403034403571E+05   3.39131480497336539E+05
             3.39090943178263784E+05   3.39050763250418007E+05   3.39010909014678560E+05   3.38971346636766451E+05   3.38932049171452993E+05
             3.38894942017993773E+05
 ETA=  174   3.39394674985556572E+05   3.39350880836257769E+05   3.39307659653892973E+05   3.39264840899023402E+05   3.39222318092464877E+05
             3.39180011596002325E+05   3.39137855730707815E+05   3.39095790142484824E+05   3.39053756402328610E+05   3.39011706269259390E+05
             3.38969124268934305E+05
 ETA=  175   3.39484486560604535E+05   3.39440259363440971E+05   3.39395416090155544E+05   3.39350889544004109E+05   3.39306605684125680E+05
             3.39262493620195892E+05   3.39218480094637547E+05   3.39174479281964886E+05   3.39130380960884213E+05   3.39086045228719478E+05
             3.39038523679467209E+05
 ETA=  176   3.39565957894134277E+05   3.39522356769739010E+05   3.39476885431796429E+05   3.39431571113460406E+05   3.39386402963574044E+05
             3.39341340627297643E+05   3.39296318186654826E+05   3.39251235230106744E+05   3.39205940752365859E+05   3.39160223478754982E+05
             3.39109041899737844E+05
 ETA=  177   3.39637759113419219E+05   3.39594554839463090E+05   3.39548865286042856E+05   3.39503197715864750E+05   3.39457583774687664E+05
             3.39412016003167024E+05   3.39366457353462407E+05   3.39320835483212140E+05   3.39275037485764129E+05   3.39228924677492061E+05
             3.39176643855888455E+05
 ETA=  178   3.39694977248808194E+05   3.39651805197563197E+05   3.39606168260671780E+05   3.39560600807162526E+05   3.39515155412076041E+05
             3.39469849285693723E+05   3.39424694517041557E+05   3.39379699560442124E+05   3.39334871285975620E+05   3.39290226017955050E+05
             3.39240084538053023E+05
 ETA=  179   3.39724360064397042E+05   3.39682246032638941E+05   3.39637634412323590E+05   3.39593247068265977E+05   3.39549124239618075E+05
             3.39505287170812429E+05   3.39461774403549090E+05   3.39418632605553197E+05   3.39375903149592108E+05   3.39333603168723523E+05
             3.39286371306869725E+05
 ETA=  180   3.39711608096839278E+05   3.39675642428766936E+05   3.39636000073958247E+05   3.39596313881763432E+05   3.39556607470332703E+05
             3.39516892380234029E+05   3.39477200545699801E+05   3.39437582314258674E+05   3.39398105401000998E+05   3.39358862574587343E+05
             3.39315484193647862E+05
 ETA=  181   3.39651764379537955E+05   3.39625740399299772E+05   3.39594089876301237E+05   3.39561838963220944E+05   3.39529063558947877E+05
             3.39495845553759427E+05   3.39462283079715446E+05   3.39428496720230731E+05   3.39394641519225144E+05   3.39360937661742675E+05
             3.39324255743616028E+05
 ETA=  182   3.39564831593850104E+05   3.39545596713787469E+05   3.39520151763537433E+05   3.39494050602364528E+05   3.39467346355772985E+05
             3.39440120968747709E+05   3.39412477531482757E+05   3.39384545163031260E+05   3.39356486708344310E+05   3.39328520802235289E+05
             3.39298328316100640E+05
 ETA=  183   3.39452742950873275E+05   3.39435056151865050E+05   3.39412596095296729E+05   3.39390080606651667E+05   3.39367518878530245E+05
             3.39344941457148234E+05   3.39322388821493194E+05   3.39299911489031569E+05   3.39277571321210649E+05   3.39255453958994593E+05
             3.39231911727415863E+05
 ETA=  184   3.39324775495410315E+05   3.39305580640356638E+05   3.39284458953728084E+05   3.39263994383735466E+05   3.39244144669775909E+05
             3.39224886994375964E+05   3.39206215855062474E+05   3.39188142009267351E+05   3.39170691403405857E+05   3.39153909545740637E+05
             3.39136991767870612E+05
 ETA=  185   3.39172277243032877E+05   3.39152946316628950E+05   3.39133538555763371E+05   3.39114796734282456E+05   3.39096755227595160E+05
             3.39079450015678362E+05   3.39062924117726914E+05   3.39047226504719758E+05   3.39032412003352190E+05   3.39018546517967246E+05
             3.39005348394514353E+05
 ETA=  186   3.39016024938925868E+05   3.38998087198222056E+05   3.38979973179437278E+05   3.38962098617799813E+05   3.38944620272820524E+05
             3.38927676696563140E+05   3.38911396676463715E+05   3.38895901015057927E+05   3.38881306356803456E+05   3.38867735967547749E+05
             3.38855113462791429E+05
 ETA=  187   3.38881069949705212E+05   3.38862515502978757E+05   3.38843482371267164E+05   3.38824623786490352E+05   3.38806055382741091E+05
             3.38787870236863615E+05   3.38770153141463059E+05   3.38752986303032027E+05   3.38736452098706854E+05   3.38720636624137871E+05
             3.38705267640365986E+05
 ETA=  188   3.38762570564003487E+05   3.38740987470050168E+05   3.38719344509915973E+05   3.38698429495145509E+05   3.38678251770205621E+05
             3.38658796320225752E+05   3.38640023346624104E+05   3.38621861485761881E+05   3.38604198004475504E+05   3.38586870278656250E+05
             3.38569113919152762E+05
 ETA=  189   3.38651012942426256E+05   3.38626807984619809E+05   3.38603559427557921E+05   3.38581569567156490E+05   3.38560733654501499E+05
             3.38540960193166917E+05   3.38522160901251074E+05   3.38504236213260447E+05   3.38487059959887469E+05   3.38470467167971015E+05
             3.38453750953864248E+05
 ETA=  190   3.38526414843659790E+05   3.38501622007640777E+05   3.38478738551669579E+05   3.38457234685940726E+05   3.38436926607163448E+05
             3.38417687354478054E+05   3.38399449645308312E+05   3.38382201960281993E+05   3.38365985941293358E+05   3.38350897793935728E+05
             3.38336763445801625E+05
 ETA=  191   3.38365520585016347E+05   3.38342490830575407E+05   3.38321030431062041E+05   3.38300533370093384E+05   3.38281013400500931E+05
             3.38262486142087437E+05   3.38244980117604893E+05   3.38228540026642731E+05   3.38213233731989283E+05   3.38199171105327900E+05
             3.38186299807496544E+05
 ETA=  192   3.38196079003423161E+05   3.38175566985204234E+05   3.38155817139926425E+05   3.38136492177580833E+05   3.38117703197748342E+05
             3.38099535848717496E+05   3.38082070404362865E+05   3.38065390180201037E+05   3.38049588427076000E+05   3.38034781158784404E+05
             3.38020823867918749E+05
 ETA=  193   3.38036220044075744E+05   3.38017216759772913E+05   3.37998475583361054E+05   3.37979818257656938E+05   3.37961280603461317E+05
             3.37942884179403540E+05   3.37924652027571108E+05   3.37906612920600805E+05   3.37888804490439710E+05   3.37871281390595017E+05
             3.37853555862824491E+05
 ETA=  194   3.37888477858500904E+05   3.37870001169868512E+05   3.37851449269636767E+05   3.37832731837178988E+05   3.37813838553635927E+05
             3.37794745712037024E+05   3.37775416396700311E+05   3.37755795073255547E+05   3.37735804091770377E+05   3.37715343178849260E+05
             3.37693310851443151E+05
 ETA=  195   3.37745606094359769E+05   3.37727633921659901E+05   3.37709216832676146E+05   3.37690446894575318E+05   3.37671302128910844E+05
             3.37651742600829748E+05   3.37631715005810664E+05   3.37611147118821507E+05   3.37589936926575669E+05   3.37567934007883538E+05
             3.37543685450350051E+05
 ETA=  196   3.37594966587452218E+05   3.37578069016694441E+05   3.37560412424035952E+05   3.37542323534114927E+05   3.37523811791457236E+05
             3.37504855528760643E+05   3.37485402421274339E+05   3.37465369126216683E+05   3.37444641302745615E+05   3.37423076703622297E+05
             3.37399314433859719E+05
 ETA=  197   3.37438999291965389E+05   3.37424384495066770E+05   3.37409255199628358E+05   3.37393864376965852E+05   3.37378095862743212E+05
             3.37361843344774388E+05   3.37345006731751317E+05   3.37327489845052478E+05   3.37309198597818846E+05   3.37290045589842426E+05
             3.37268932726375351E+05
 ETA=  198   3.37267690483733080E+05   3.37257717273677932E+05   3.37247301470493956E+05   3.37236649344223842E+05   3.37225611011792033E+05
             3.37214063002841373E+05   3.37201901323006547E+05   3.37189034431343724E+05   3.37175373618872429E+05   3.37160825018211443E+05
             3.37144540148542030E+05
 ETA=  199   3.37068054769970651E+05   3.37065886514000478E+05   3.37062565762720420E+05   3.37058415833318548E+05   3.37053485103779822E+05
             3.37047807323786663E+05   3.37041396846581716E+05   3.37034245718191960E+05   3.37026322734359768E+05   3.37017579846762412E+05
             3.37007585977484589E+05
 ETA=  200   3.36850847871785227E+05   3.36855734746426810E+05   3.36859474736578239E+05   3.36861967109293095E+05   3.36863321371558530E+05
             3.36863633630092954E+05   3.36862995446389192E+05   3.36861500355188677E+05   3.36859248519576213E+05   3.36856350660911063E+05
             3.36852823738704319E+05
 ETA=  201   3.36623779315869440E+05   3.36630474384676374E+05   3.36636923840770847E+05   3.36642657509316574E+05   3.36647707288151607E+05
             3.36652108339485363E+05   3.36655900691754126E+05   3.36659130549791444E+05   3.36661852071314119E+05   3.36664129284171737E+05
             3.36666077725369192E+05
 ETA=  202   3.36409805237366760E+05   3.36415561635904713E+05   3.36421735184673627E+05   3.36427922882300278E+05   3.36434095973750809E+05
             3.36440232135229744E+05   3.36446314135177061E+05   3.36452330276374996E+05   3.36458275730100111E+05   3.36464154425680579E+05
             3.36470153023107268E+05
 ETA=  203   3.36210947453357803E+05   3.36216208956876479E+05   3.36222122271037952E+05   3.36228458882984822E+05   3.36235175921418297E+05
             3.36242239841905015E+05   3.36249623651665868E+05   3.36257309041064349E+05   3.36265288821691007E+05   3.36273568475887179E+05
             3.36282521103539155E+05
 ETA=  204   3.36010935297535034E+05   3.36018341063775297E+05   3.36026349693426804E+05   3.36034764272530156E+05   3.36043540864740615E+05
             3.36052653393427783E+05   3.36062084581058298E+05   3.36071826169059670E+05   3.36081878904800164E+05   3.36092250302590837E+05
             3.36103859072207357E+05
 ETA=  205   3.35805829473122430E+05   3.35818934500461561E+05   3.35832631771621003E+05   3.35846268395086634E+05   3.35859821618875139E+05
             3.35873276147917612E+05   3.35886616686893860E+05   3.35899832101783948E+05   3.35912922383291938E+05   3.35925907559456420E+05
             3.35940794400253391E+05
 ETA=  206   3.35598444059147383E+05   3.35619138797601685E+05   3.35641504190717591E+05   3.35663342889275053E+05   3.35684632368820487E+05
             3.35705345348311472E+05   3.35725447311510274E+05   3.35744896595308848E+05   3.35763646024948917E+05   3.35781642077943252E+05
             3.35802166706687945E+05
 ETA=  207   3.35418149995234911E+05   3.35444445538505213E+05   3.35475127208936145E+05   3.35505237443388323E+05   3.35534767761343915E+05
             3.35563690810848202E+05   3.35591960728438629E+05   3.35619507896013558E+05   3.35646227321555896E+05   3.35671941898367426E+05
             3.35701853232336929E+05
 ETA=  208   3.35301317131314485E+05   3.35326424076514028E+05   3.35359887058056484E+05   3.35393375495548593E+05   3.35426864844451309E+05
             3.35460314529247000E+05   3.35493661678476608E+05   3.35526812579446705E+05   3.35559625829111901E+05   3.35591859923121112E+05
             3.35631469013887167E+05
 ETA=  209   3.35275081682141870E+05   3.35297046396162128E+05   3.35329318449874176E+05   3.35362071263057238E+05   3.35395272301365330E+05
             3.35428880171407596E+05   3.35462833996293426E+05   3.35497046605127340E+05   3.35531390505748335E+05   3.35565644843188580E+05
             3.35609315144800872E+05
 ETA=  210   3.35349310495245620E+05   3.35372642645528773E+05   3.35405317110850243E+05   3.35437466082164843E+05   3.35469097159561934E+05
             3.35500222499840311E+05   3.35530851512884139E+05   3.35560993759051780E+05   3.35590661075202806E+05   3.35619846900336503E+05
             3.35656536009536998E+05
 ETA=  211   3.35511850637617114E+05   3.35531957283604192E+05   3.35556453943878179E+05   3.35580133864746836E+05   3.35603016870722699E+05
             3.35625126763295615E+05   3.35646481039493403E+05   3.35667090458897699E+05   3.35686960272137192E+05   3.35706079181572422E+05
             3.35728885577571928E+05
 ETA=  212   3.35644510496604955E+05   3.35658132914714341E+05   3.35673400916111714E+05   3.35688678914313379E+05   3.35703779029205733E+05
             3.35718577037801384E+05   3.35732981982498372E+05   3.35746913428180502E+05   3.35760274674063025E+05   3.35772905180935690E+05
             3.35786708868422429E+05
 ETA=  213   3.35741228371291654E+05   3.35753986083022668E+05   3.35765742883890751E+05   3.35776878769036441E+05   3.35787461061510781E+05
             3.35797538186048740E+05   3.35807139609870675E+05   3.35816277913997357E+05   3.35824953429295856E+05   3.35833154235455964E+05
             3.35841690877524554E+05
 ETA=  214   3.35821965419332497E+05   3.35841541534942051E+05   3.35855644949836016E+05   3.35867726089670439E+05   3.35878455780534889E+05
             3.35888210167883139E+05   3.35897194503346866E+05   3.35905522608506610E+05   3.35913268845754792E+05   3.35920506256573135E+05
             3.35927220918306557E+05
 ETA=  215   3.35898445758236514E+05   3.35938252792375744E+05   3.35968524468808086E+05   3.35995603671769379E+05   3.36020016883404634E+05
             3.36042155167295597E+05   3.36062313548589067E+05   3.36080708137711568E+05   3.36097487275393505E+05   3.36112743934899860E+05
             3.36125137888840225E+05
 ETA=  216   3.35927032757353736E+05   3.35987556017657917E+05   3.36036600698059076E+05   3.36083872140854422E+05   3.36129513890684873E+05
             3.36173633907208219E+05   3.36216346003679675E+05   3.36257780975925270E+05   3.36298085229023651E+05   3.36337425013766449E+05
             3.36369718854809820E+05
 ETA=  217   3.35939270718303334E+05   3.36009609682655020E+05   3.36066483319203660E+05   3.36122826702223858E+05   3.36178996558082523E+05
             3.36235158101836627E+05   3.36291385896154097E+05   3.36347708412484499E+05   3.36404134964060620E+05   3.36460663781619049E+05
             3.36506284729114908E+05
 ETA=  218   3.35937258987609006E+05   3.36006332230860542E+05   3.36059802142361877E+05   3.36110767907503294E+05   3.36159626771577750E+05
             3.36206608189728868E+05   3.36251888488369004E+05   3.36295622890867991E+05   3.36337954928072868E+05   3.36378996960088843E+05
             3.36410659442881239E+05
 ETA=  219   3.35911967541215883E+05   3.35958371714921959E+05   3.35990615719944355E+05   3.36019050645961019E+05   3.36044565218186995E+05
             3.36067768069636368E+05   3.36089084491975780E+05   3.36108815057469532E+05   3.36127172624955710E+05   3.36144297191960854E+05
             3.36157864303231530E+05
 ETA=  220   3.35839277440476813E+05   3.35858644193187007E+05   3.35870095472515735E+05   3.35879398474050220E+05   3.35887388227970281E+05
             3.35894501876797003E+05   3.35900956831014657E+05   3.35906847526267811E+05   3.35912195499991998E+05   3.35916972417367389E+05
             3.35921117296118813E+05
 ETA=  221   3.35790977887082379E+05   3.35797638442406489E+05   3.35802007888675726E+05   3.35805724472412316E+05   3.35808932393128925E+05
             3.35811758806076075E+05   3.35814303393181064E+05   3.35816631503562850E+05   3.35818768623152806E+05   3.35820693574750854E+05
             3.35822671232138819E+05
 ETA=  222   3.35741364250078390E+05   3.35742307661473169E+05   3.35743393796853430E+05   3.35744548849313287E+05   3.35745849530650594E+05
             3.35747370774849376E+05   3.35749173619583715E+05   3.35751315343980154E+05   3.35753874505061365E+05   3.35757000936360855E+05
             3.35761337136281887E+05
 ETA=  223   3.35677436080884538E+05   3.35674636978058610E+05   3.35673285469521943E+05   3.35672777012808772E+05   3.35672992822334869E+05
             3.35673860671025817E+05   3.35675363199775980E+05   3.35677537661416281E+05   3.35680473365106387E+05   3.35684298556836846E+05
             3.35689767918651109E+05
 ETA=  224   3.35559644275514293E+05   3.35556250934036681E+05   3.35554594016803429E+05   3.35554148196553811E+05   3.35554849320734676E+05
             3.35556670209521486E+05   3.35559603473353200E+05   3.35563651624932070E+05   3.35568822749001556E+05   3.35575125535815721E+05
             3.35583240143165516E+05
 ETA=  225   3.35408422176501190E+05   3.35409032760218484E+05   3.35410924529137556E+05   3.35413871462854731E+05   3.35417882276942895E+05
             3.35422957218310272E+05   3.35429086745370936E+05   3.35436251847785315E+05   3.35444424366127409E+05   3.35453560230099305E+05
             3.35464086206216016E+05
 ETA=  226   3.35250628031259577E+05   3.35255097878943372E+05   3.35260374065024254E+05   3.35266437211388373E+05   3.35273271490267420E+05
             3.35280867447425786E+05   3.35289226114623947E+05   3.35298360035105201E+05   3.35308290437399934E+05   3.35319032364045037E+05
             3.35330733349722519E+05
 ETA=  227   3.35088523909789801E+05   3.35092742649435648E+05   3.35097345557420282E+05   3.35102503266130516E+05   3.35108289859715442E+05
             3.35114778896010015E+05   3.35122039045046607E+05   3.35130134707951162E+05   3.35139129812450206E+05   3.35149087009753275E+05
             3.35160016561857366E+05
 ETA=  228   3.34932708930984838E+05   3.34933414542147191E+05   3.34934163823392941E+05   3.34935199452071916E+05   3.34936661876849539E+05
             3.34938663184479345E+05   3.34941301824045368E+05   3.34944673382194364E+05   3.34948880124125921E+05   3.34954040082181280E+05
             3.34960072625023837E+05
 ETA=  229   3.34795513550034259E+05   3.34790302452177799E+05   3.34785431565137173E+05   3.34780738857355958E+05   3.34776241345108836E+05
             3.34771932421107660E+05   3.34767792533456057E+05   3.34763791013550945E+05   3.34759884619181510E+05   3.34756017585885769E+05
             3.34752098686318495E+05
 ETA=  230   3.34677287146035989E+05   3.34664187812759250E+05   3.34652011794536083E+05   3.34640070233673265E+05   3.34628282651739079E+05
             3.34616561171692039E+05   3.34604807063931308E+05   3.34592903316799493E+05   3.34580708626870008E+05   3.34568050317987683E+05
             3.34555682147031126E+05
 ETA=  231   3.34567319266698847E+05   3.34546227498649387E+05   3.34526444830831897E+05   3.34506995318557252E+05   3.34487841318886029E+05
             3.34468934607927047E+05   3.34450227165332879E+05   3.34431671848244092E+05   3.34413222196596034E+05   3.34394823747343675E+05
             3.34378050910869089E+05
 ETA=  232   3.34456714767019614E+05   3.34430064894680632E+05   3.34405243213543901E+05   3.34380988315125927E+05   3.34357220544803888E+05
             3.34333887962857843E+05   3.34310973311760928E+05   3.34288492784198606E+05   3.34266495515305840E+05   3.34245061680972227E+05
             3.34225672005927132E+05
 ETA=  233   3.34344262194402108E+05   3.34315262103722722E+05   3.34288373125711863E+05   3.34262259564419277E+05   3.34236809067933471E+05
             3.34211952375164023E+05   3.34187655071409594E+05   3.34163909480979608E+05   3.34140732706089038E+05   3.34118182426199375E+05
             3.34096894380006415E+05
 ETA=  234   3.34230599118000187E+05   3.34202200475407124E+05   3.34175522509585251E+05   3.34149532055921445E+05   3.34124126371036458E+05
             3.34099218723120517E+05   3.34074742300745740E+05   3.34050648080626153E+05   3.34026902555583627E+05   3.34003504464363330E+05
             3.33980409767857927E+05
 ETA=  235   3.34100483407201653E+05   3.34074787217790028E+05   3.34049915456880699E+05   3.34025332000671711E+05   3.34001007274293283E+05
             3.33976897955181776E+05   3.33952949226154771E+05   3.33929091298345185E+05   3.33905232724576083E+05   3.33881261444462289E+05
             3.33857063952515426E+05
 ETA=  236   3.33947178212403203E+05   3.33924700923422177E+05   3.33902317844034638E+05   3.33879840216770128E+05   3.33857286005297676E+05
             3.33834659817985783E+05   3.33811952025671606E+05   3.33789135159881320E+05   3.33766157814310922E+05   3.33742933836367913E+05
             3.33719756335151324E+05
 ETA=  237   3.33776889736677636E+05   3.33756755811772717E+05   3.33736363847559900E+05   3.33715840795808588E+05   3.33695219857275370E+05
             3.33674530931330693E+05   3.33653797542539542E+05   3.33633032709782536E+05   3.33612234858901997E+05   3.33591378028747626E+05
             3.33570976031811093E+05
 ETA=  238   3.33601632306793821E+05   3.33582863478891726E+05   3.33563569232354581E+05   3.33544286115330935E+05   3.33525084106186521E+05
             3.33506033727622940E+05   3.33487210440864088E+05   3.33468693911651731E+05   3.33450567068226053E+05   3.33432916549101879E+05
             3.33416194122615794E+05
 ETA=  239   3.33424494213695754E+05   3.33405953390340379E+05   3.33386666177876876E+05   3.33367467580168392E+05   3.33348507885340601E+05
             3.33329924063275801E+05   3.33311853444644657E+05   3.33294441012552532E+05   3.33277846512540884E+05   3.33262262139296916E+05
             3.33248034798887325E+05
 ETA=  240   3.33252069874675421E+05   3.33232088685620169E+05   3.33211635824131605E+05   3.33191310360094125E+05   3.33171271707408945E+05
             3.33151656793148373E+05   3.33132594851771952E+05   3.33114219552498020E+05   3.33096684513174696E+05   3.33080202374544751E+05
             3.33064998942434730E+05
 ETA=  241   3.33099450822214712E+05   3.33075813461252896E+05   3.33053018580186472E+05   3.33030671684172645E+05   3.33008723563009058E+05
             3.32987120574462286E+05   3.32965815647420590E+05   3.32944772396648070E+05   3.32923963902165298E+05   3.32903384461168025E+05
             3.32882776775947888E+05
 ETA=  242   3.32960980073302344E+05   3.32932812925317849E+05   3.32907157323129650E+05   3.32882500017402112E+05   3.32858557870158809E+05
             3.32835100098032563E+05   3.32811913115396863E+05   3.32788773584212759E+05   3.32765422478478984E+05   3.32741547326421016E+05
             3.32716419338272070E+05
 ETA=  243   3.32820564469671168E+05   3.32792555618462386E+05   3.32766678968860651E+05   3.32741709628169599E+05   3.32717359308598796E+05
             3.32693397011884255E+05   3.32669627543322043E+05   3.32645872152337455E+05   3.32621948444151378E+05   3.32597653753725812E+05
             3.32572436846722907E+05
 ETA=  244   3.32644792519259616E+05   3.32623207540053991E+05   3.32601335361747886E+05   3.32579318459033850E+05   3.32557203470314969E+05
             3.32535019079186255E+05   3.32512786819767789E+05   3.32490527874923544E+05   3.32468271606912254E+05   3.32446075940048147E+05
             3.32423592336700822E+05
 ETA=  245   3.32416458259113133E+05   3.32401934961835737E+05   3.32386069813638926E+05   3.32369403967331978E+05   3.32352062999414513E+05
             3.32334155678368057E+05   3.32315788153710542E+05   3.32297071583147568E+05   3.32278129975189862E+05   3.32259122153330303E+05
             3.32239547582034138E+05
 ETA=  246   3.32165721309540560E+05   3.32155332180897181E+05   3.32143694668913609E+05   3.32131252384301741E+05   3.32118055327239505E+05
             3.32104151327931380E+05   3.32089591648485046E+05   3.32074431001699471E+05   3.32058727138436749E+05   3.32042552553226298E+05
             3.32025161972197471E+05
 ETA=  247   3.31951227811978606E+05   3.31942874261292513E+05   3.31933097050756449E+05   3.31922449810050137E+05   3.31911011784419825E+05
             3.31898843416243501E+05   3.31885987136399781E+05   3.31872462448977749E+05   3.31858262315327069E+05   3.31843361112414917E+05
             3.31826955109585193E+05
 ETA=  248   3.31802954706072225E+05   3.31794945516021166E+05   3.31785210008493334E+05   3.31774460435578425E+05   3.31762809437327669E+05
             3.31750326552597340E+05   3.31737058682107308E+05   3.31723038219006266E+05   3.31708287336882029E+05   3.31692822297180188E+05
[...]
 ETA= 2055   1.88827231779362919E+05   1.88828703590103134E+05   1.88834624698522850E+05   1.88842718848803983E+05   1.88851881010458397E+05
             1.88861760224137106E+05   1.88872263558505249E+05   1.88883284256441257E+05   1.88894988470731361E+05   1.88908240017490811E+05
             1.88924540217272908E+05
 ETA= 2056   1.88784157666482613E+05   1.88776040039532760E+05   1.88770225042771257E+05   1.88765565967876726E+05   1.88761862453665090E+05
             1.88758986765268171E+05   1.88756780430775892E+05   1.88755055324076035E+05   1.88754180668760091E+05   1.88755768995203660E+05
             1.88762663137124269E+05
 ETA= 2057   1.88709091211343155E+05   1.88692033150419331E+05   1.88678421980068990E+05   1.88666670827719499E+05   1.88656246849521704E+05
             1.88646845241196483E+05   1.88638242974509893E+05   1.88630244912449678E+05   1.88623030500856345E+05   1.88617537943743402E+05
             1.88615315426494984E+05
 ETA= 2058   1.88596950808531605E+05   1.88575295803144370E+05   1.88557869574200769E+05   1.88543399170029268E+05   1.88530912919108203E+05
             1.88519754610247997E+05   1.88509490455046092E+05   1.88499785289905703E+05   1.88490407535198174E+05   1.88481246877976577E+05
             1.88471990132714855E+05
 ETA= 2059   1.88466411412861198E+05   1.88441606795433909E+05   1.88421986837923760E+05   1.88406234805511049E+05   1.88392958051997819E+05
             1.88381155194951745E+05   1.88370136490516743E+05   1.88359327705921954E+05   1.88348155185097130E+05   1.88335995210481313E+05
             1.88322072359771060E+05
 ETA= 2060   1.88323974825180805E+05   1.88295703833982436E+05   1.88273589974027273E+05   1.88255791522144660E+05   1.88240710752022511E+05
             1.88227204464408336E+05   1.88214452216761856E+05   1.88201724556312751E+05   1.88188247080251633E+05   1.88173163659930753E+05
             1.88155634461905167E+05
 ETA= 2061   1.88161137001602823E+05   1.88131847354174213E+05   1.88109772133954481E+05   1.88092177540786244E+05   1.88077136312002665E+05
             1.88063402593313833E+05   1.88050133393275872E+05   1.88036560654920700E+05   1.88021789117151900E+05   1.88004706946141698E+05
             1.87984054206016852E+05
 ETA= 2062   1.87991098350720335E+05   1.87965299869510083E+05   1.87946342272316542E+05   1.87931061119733844E+05   1.87917507797841274E+05
             1.87904583949543769E+05   1.87891627949385671E+05   1.87877982008441817E+05   1.87862732691020559E+05   1.87844569219497178E+05
             1.87821764400400600E+05
 ETA= 2063   1.87824833594146796E+05   1.87807371152634529E+05   1.87792805417993601E+05   1.87779603667066898E+05   1.87766880915776914E+05
             1.87754074411327718E+05   1.87740792830836144E+05   1.87726589899187034E+05   1.87710746605766995E+05   1.87692116643200716E+05
             1.87668995486408676E+05
 ETA= 2064   1.87656845726761967E+05   1.87650995641790010E+05   1.87641453433358343E+05   1.87630179393411439E+05   1.87618224416852201E+05
             1.87605757632278284E+05   1.87592574463825295E+05   1.87578446081174014E+05   1.87563037178763188E+05   1.87545744306312292E+05
             1.87525472952966142E+05
 ETA= 2065   1.87478542532190244E+05   1.87483978141131171E+05   1.87480945783180156E+05   1.87473763676751696E+05   1.87465058606380742E+05
             1.87455721058699652E+05   1.87445799160848808E+05   1.87435291923167155E+05   1.87424183957454719E+05   1.87412274361537624E+05
             1.87399011762009817E+05
 ETA= 2066   1.87289482150688098E+05   1.87303054384218296E+05   1.87309146700871992E+05   1.87310936468812375E+05   1.87310583924907027E+05
             1.87309101174480485E+05   1.87306839476452180E+05   1.87304039083972166E+05   1.87300910451353440E+05   1.87297586417944811E+05
             1.87294094412768871E+05
 ETA= 2067   1.87098467836339056E+05   1.87115587871731026E+05   1.87129357140747743E+05   1.87140882263827720E+05   1.87150867219759879E+05
             1.87159786282449175E+05   1.87167995012892672E+05   1.87175744626301952E+05   1.87183207753405586E+05   1.87190549632629845E+05
             1.87198110872551304E+05
 ETA= 2068   1.86926322431938373E+05   1.86943314209835633E+05   1.86960996143344935E+05   1.86978995087681862E+05   1.86996903452907107E+05
             1.87014551780564681E+05   1.87032003138349828E+05   1.87049323675046675E+05   1.87066570461574709E+05   1.87083912387104443E+05
             1.87101867958858289E+05
 ETA= 2069   1.86773889300701005E+05   1.86790226497854688E+05   1.86810270128452743E+05   1.86832437391236192E+05   1.86855644624159409E+05
             1.86879285847689200E+05   1.86903189748941018E+05   1.86927326596801693E+05   1.86951797608039633E+05   1.86976971498608909E+05
             1.87003591822633578E+05
 ETA= 2070   1.86625713723232970E+05   1.86644378406242002E+05   1.86668182751930173E+05   1.86694919397944992E+05   1.86723072061525745E+05
             1.86751889446929825E+05   1.86781199067151407E+05   1.86810997979173408E+05   1.86841480405017326E+05   1.86873244097551738E+05
             1.86907347934042191E+05
 ETA= 2071   1.86476801166042511E+05   1.86501760387047252E+05   1.86531477132999047E+05   1.86563842638834089E+05   1.86597406514983362E+05
             1.86631513946248248E+05   1.86666025214142137E+05   1.86700951683876949E+05   1.86736616349658230E+05   1.86773969113171624E+05
             1.86814689936763374E+05
 ETA= 2072   1.86319144513382926E+05   1.86353131800095929E+05   1.86390492093312263E+05   1.86429822895202466E+05   1.86470184035898332E+05
             1.86511112960155500E+05   1.86552451139150624E+05   1.86594171619383793E+05   1.86636519732907327E+05   1.86680217454180209E+05
             1.86726941092031397E+05
 ETA= 2073   1.86164118860317336E+05   1.86208465602279757E+05   1.86254880561239697E+05   1.86302205701079074E+05   1.86349882915712107E+05
             1.86397712748861028E+05   1.86445669385845948E+05   1.86493798260616633E+05   1.86542213441577216E+05   1.86591128237195080E+05
             1.86641509813256620E+05
 ETA= 2074   1.86020263165397861E+05   1.86074506513856380E+05   1.86128130343482568E+05   1.86181188831165346E+05   1.86233788673371339E+05
             1.86286150776172581E+05   1.86338470024469891E+05   1.86390872377287771E+05   1.86443269866833463E+05   1.86495193274395482E+05
             1.86546082507318206E+05
 ETA= 2075   1.85897694570450927E+05   1.85958412716336024E+05   1.86015278427391837E+05   1.86070133179983997E+05   1.86123972263763513E+05
             1.86177367573172145E+05   1.86230594787632348E+05   1.86283762286587676E+05   1.86336630747932068E+05   1.86388396677309473E+05
             1.86437472051636898E+05
 ETA= 2076   1.85788703723071376E+05   1.85851486342385120E+05   1.85908162382464739E+05   1.85961988251509320E+05   1.86014603186751861E+05
             1.86066753473891993E+05   1.86118697139978933E+05   1.86170532283185836E+05   1.86222031870265986E+05   1.86272488009928231E+05
             1.86320533320466697E+05
 ETA= 2077   1.85679923581077543E+05   1.85739439701875672E+05   1.85793656501477933E+05   1.85845249360258778E+05   1.85895776414622320E+05
             1.85945947345698864E+05   1.85996075260880578E+05   1.86046381365438079E+05   1.86096760471509828E+05   1.86146722473448026E+05
             1.86195518236613541E+05
 ETA= 2078   1.85564837129232998E+05   1.85617326361262560E+05   1.85667235034663841E+05   1.85715370368490694E+05   1.85762617873221752E+05
             1.85809523648684437E+05   1.85856520854561531E+05   1.85904015704253077E+05   1.85952202535791701E+05   1.86001217034859990E+05
             1.86051464359471342E+05
 ETA= 2079   1.85443863078547729E+05   1.85489665064725821E+05   1.85534155102823250E+05   1.85577431392597384E+05   1.85620020459112246E+05
             1.85662398114590207E+05   1.85705057419192075E+05   1.85748486895263864E+05   1.85793274342727906E+05   1.85840504010380682E+05
             1.85892011383318837E+05
 ETA= 2080   1.85320221277145902E+05   1.85362140401500830E+05   1.85403287767183909E+05   1.85443771781290910E+05   1.85483925753201329E+05
             1.85524105409860873E+05   1.85564700663860742E+05   1.85606111272505106E+05   1.85649102203102841E+05   1.85695341997444775E+05
             1.85747587614969263E+05
 ETA= 2081   1.85192137690831529E+05   1.85233156033333391E+05   1.85274372317088302E+05   1.85315800097617932E+05   1.85357512053175305E+05
             1.85399644196048030E+05   1.85442435098008602E+05   1.85486175899431983E+05   1.85531460867146350E+05   1.85579464457826660E+05
             1.85632046849487320E+05
 ETA= 2082   1.85060263253452227E+05   1.85102579385928519E+05   1.85146337815031002E+05   1.85191097207812563E+05   1.85236509587234556E+05
             1.85282481412095978E+05   1.85329167751223693E+05   1.85376799564250308E+05   1.85425685054537636E+05   1.85476141483374056E+05
             1.85528286373355426E+05
 ETA= 2083   1.84926812493897189E+05   1.84971117216449988E+05   1.85016907222411712E+05   1.85063924794863706E+05   1.85111842270428926E+05
             1.85160505253090087E+05   1.85209959114464145E+05   1.85260289129384677E+05   1.85311498162612552E+05   1.85363254019895656E+05
             1.85414566489927558E+05
 ETA= 2084   1.84792449134825350E+05   1.84837587065500236E+05   1.84883341547713237E+05   1.84930161203556840E+05   1.84978024262804392E+05
             1.85026810799624625E+05   1.85076441416798159E+05   1.85126830097930244E+05   1.85177794555363042E+05   1.85228867375596688E+05
             1.85279111517357029E+05
 ETA= 2085   1.84658201441864629E+05   1.84701979923601000E+05   1.84746272190745687E+05   1.84791699910171534E+05   1.84838332126711874E+05
             1.84886025842574774E+05   1.84934621115778049E+05   1.84983949766646430E+05   1.85033786281424953E+05   1.85083780234152277E+05
             1.85133406548750703E+05
 ETA= 2086   1.84528007037626376E+05   1.84568623412322806E+05   1.84610868664088048E+05   1.84654826028755924E+05   1.84700325273482624E+05
             1.84747074363135383E+05   1.84794811489539308E+05   1.84843301975743147E+05   1.84892305394510156E+05   1.84941572968544846E+05
             1.84990874354438449E+05
 ETA= 2087   1.84402911314303725E+05   1.84440220608482399E+05   1.84480620003568649E+05   1.84523497684164380E+05   1.84568317383353453E+05
             1.84614618286969693E+05   1.84662065365580493E+05   1.84710370730338036E+05   1.84759239255435736E+05   1.84808385267427395E+05
             1.84857654632453370E+05
 ETA= 2088   1.84277820350619673E+05   1.84312926858654158E+05   1.84352307033161516E+05   1.84394721380371891E+05   1.84439267332124815E+05
             1.84485376939321432E+05   1.84532711740545288E+05   1.84580966757778951E+05   1.84629785566612351E+05   1.84678779875889129E+05
             1.84727691882784275E+05
 ETA= 2089   1.84144937079057301E+05   1.84179439537688508E+05   1.84218995701319247E+05   1.84261802849642583E+05   1.84306728890073893E+05
             1.84353174126168189E+05   1.84400798659344611E+05   1.84449273813538020E+05   1.84498191187006887E+05   1.84547083836762991E+05
             1.84595477988184546E+05
 ETA= 2090   1.83999417376201745E+05   1.84035441433235159E+05   1.84075995746624481E+05   1.84119572885853617E+05   1.84165330416199839E+05
             1.84212787957330554E+05   1.84261597327484342E+05   1.84311397057178459E+05   1.84361681612352986E+05   1.84411722560638096E+05
             1.84460509426328848E+05
 ETA= 2091   1.83844463078732049E+05   1.83884687989764381E+05   1.83927806323381694E+05   1.83973250907506997E+05   1.84020685997719847E+05
             1.84069810032067384E+05   1.84120295516249636E+05   1.84171785414231941E+05   1.84223761891800270E+05   1.84275482135750324E+05
             1.84326014233620401E+05
 ETA= 2092   1.83674156175805285E+05   1.83719958478647517E+05   1.83766612714866904E+05   1.83814691968633560E+05   1.83864351421202067E+05
             1.83915497877243208E+05   1.83967921649034397E+05   1.84021366717212455E+05   1.84075405060642603E+05   1.84129469783768320E+05
             1.84183001115555933E+05
 ETA= 2093   1.83482275086074165E+05   1.83531631550838123E+05   1.83580935175086750E+05   1.83631299067902321E+05   1.83683158235193929E+05
             1.83736579575608659E+05   1.83791484033452871E+05   1.83847701945460576E+05   1.83904838507388282E+05   1.83962381890005432E+05
             1.84019978879957693E+05
 ETA= 2094   1.83279178169906721E+05   1.83328883386265108E+05   1.83379769014574500E+05   1.83432233264638489E+05   1.83486397171248042E+05
             1.83542265445989440E+05   1.83599791189984651E+05   1.83658830393234442E+05   1.83719042723744613E+05   1.83780075940296578E+05
             1.83841830337956693E+05
 ETA= 2095   1.83077674700577976E+05   1.83126169739241013E+05   1.83178046250127110E+05   1.83232324084011838E+05   1.83288488270768838E+05
             1.83346379162138008E+05   1.83405966337863414E+05   1.83467185938588693E+05   1.83529860904576344E+05   1.83593910392626305E+05
             1.83659554750518524E+05
 ETA= 2096   1.82862458581111568E+05   1.82910515565679176E+05   1.82961942376866413E+05   1.83015781183753657E+05   1.83071825849606248E+05
             1.83130132610600849E+05   1.83190763446391386E+05   1.83253710705733509E+05   1.83318832301028771E+05   1.83385999729851785E+05
             1.83455325002728030E+05
 ETA= 2097   1.82645623983787373E+05   1.82696427074163919E+05   1.82748489493845496E+05   1.82802085393673537E+05   1.82857748101234698E+05
             1.82915826034778962E+05   1.82976442635112384E+05   1.83039633433275507E+05   1.83105405289857794E+05   1.83173897035809438E+05
             1.83245615665988909E+05
 ETA= 2098   1.82458150964147935E+05   1.82514069686722418E+05   1.82568043545766064E+05   1.82622607676088752E+05   1.82678968882431363E+05
             1.82737607129952579E+05   1.82798628763147630E+05   1.82862053574522259E+05   1.82927991003199830E+05   1.82996867557578371E+05
             1.83069618439976039E+05
 ETA= 2099   1.82310745044446317E+05   1.82367846754207363E+05   1.82422362394298107E+05   1.82477850313724601E+05   1.82535631529652746E+05
             1.82596076493836183E+05   1.82659200062609976E+05   1.82724937067027349E+05   1.82793201027691073E+05   1.82863961853041576E+05
             1.82937436277251458E+05
 ETA= 2100   1.82189237119602971E+05   1.82241691157053545E+05   1.82295462685901992E+05   1.82351957844586112E+05   1.82411516556800314E+05
             1.82474097730145615E+05   1.82539594517262507E+05   1.82607869051464280E+05   1.82678607217192097E+05   1.82751240544958273E+05
             1.82824986769135838E+05
 ETA= 2101   1.82074078792836721E+05   1.82118631115572643E+05   1.82169891894889966E+05   1.82225969646675512E+05   1.82285924448650127E+05
             1.82349275652926241E+05   1.82415792504197016E+05   1.82485262340356538E+05   1.82557201008986594E+05   1.82630750613566022E+05
             1.82704650960014289E+05
 ETA= 2102   1.81953741417744721E+05   1.81990693140426360E+05   1.82036575876426010E+05   1.82088243024383410E+05   1.82144471252835443E+05
             1.82204713719837368E+05   1.82268718035289843E+05   1.82336261078461946E+05   1.82406881669507391E+05   1.82479854919972277E+05
             1.82554390243695292E+05
 ETA= 2103   1.81831622122515488E+05   1.81864704500079009E+05   1.81905977857619611E+05   1.81952920491038501E+05   1.82004574879699358E+05
             1.82060485736109258E+05   1.82120405752594437E+05   1.82184121270531439E+05   1.82251416207674833E+05   1.82322274739620567E+05
             1.82397359512072406E+05
 ETA= 2104   1.81707540517458459E+05   1.81741432883786183E+05   1.81781789466575487E+05   1.81827522462726192E+05   1.81877936765883351E+05
             1.81932607498149737E+05   1.81991247911563580E+05   1.82053581158873596E+05   1.82119495261395816E+05   1.82189444066534023E+05
             1.82264855931634898E+05
 ETA= 2105   1.81580729403722915E+05   1.81617607072870858E+05   1.81660041703575524E+05   1.81708109335181769E+05   1.81761255733814061E+05
             1.81819017037319951E+05   1.81881065986048459E+05   1.81947074318101426E+05   1.82016748600616556E+05   1.82089912794067757E+05
             1.82166406205360632E+05
 ETA= 2106   1.81456059088711831E+05   1.81495969306971441E+05   1.81542754194093635E+05   1.81595682638228027E+05   1.81653730962281406E+05
             1.81716343583390146E+05   1.81783239838545705E+05   1.81854096731035446E+05   1.81928479889374692E+05   1.82005633301800146E+05
             1.82083583715539222E+05
 ETA= 2107   1.81329671002784133E+05   1.81371695993953530E+05   1.81422724805590144E+05   1.81480170847931440E+05   1.81542485799323505E+05
             1.81609164788452763E+05   1.81680055535393447E+05   1.81754868747078872E+05   1.81833159674455266E+05   1.81913996558617975E+05
             1.81994365694703098E+05
 ETA= 2108   1.81191989013880637E+05   1.81236157952382171E+05   1.81289945083744737E+05   1.81349874879530602E+05   1.81414494727182551E+05
             1.81483561077446386E+05   1.81557050603871845E+05   1.81634693423268851E+05   1.81716226732712967E+05   1.81801107940045476E+05
             1.81886247324674478E+05
 ETA= 2109   1.81049214331133233E+05   1.81097944385572860E+05   1.81155064814503799E+05   1.81217259847595909E+05   1.81283485068770940E+05
             1.81353875775663502E+05   1.81428642385142215E+05   1.81507760796001385E+05   1.81591531271526270E+05   1.81680531030507787E+05
             1.81774293957757996E+05
 ETA= 2110   1.80916055086381006E+05   1.80971079402675503E+05   1.81030960642872378E+05   1.81094138544601417E+05   1.81160555229190591E+05
             1.81230781954175502E+05   1.81305168490594573E+05   1.81384101508506952E+05   1.81468645666673954E+05   1.81560630564351421E+05
             1.81662782249241223E+05
 ETA= 2111   1.80790715424561844E+05   1.80850691341307887E+05   1.80910334282584838E+05   1.80971780563308159E+05   1.81036370628150326E+05
             1.81104753392968996E+05   1.81177371125228965E+05   1.81255330344886141E+05   1.81340368119484192E+05   1.81434480722643668E+05
             1.81540436707924033E+05
 ETA= 2112   1.80678264145019697E+05   1.80741199804610602E+05   1.80799875957879500E+05   1.80858890493948827E+05   1.80920368471785769E+05
             1.80985119991980435E+05   1.81053890308529721E+05   1.81128365786565992E+05   1.81210594764352893E+05   1.81302695061680482E+05
             1.81407898594448139E+05
 ETA= 2113   1.80577139444510016E+05   1.80640819147935545E+05   1.80697342454628379E+05   1.80753068511067744E+05   1.80810393890745414E+05
             1.80870143085007323E+05   1.80933239387956564E+05   1.81001551523519738E+05   1.81077000832966791E+05   1.81162213734011340E+05
             1.81263132866978791E+05
 ETA= 2114   1.80489524957694841E+05   1.80551141330675484E+05   1.80604948277192219E+05   1.80657725838613958E+05   1.80711256433973584E+05
             1.80765902669405303E+05   1.80822929110468074E+05   1.80885010871877224E+05   1.80954229111084016E+05   1.81032548977903061E+05
             1.81126112583974435E+05
 ETA= 2115   1.80419776158453926E+05   1.80475495253197558E+05   1.80524698664785712E+05   1.80572847649119736E+05   1.80622291081799049E+05
             1.80673582444630651E+05   1.80726774555439275E+05   1.80782975343840662E+05   1.80843596253190917E+05   1.80910630087424215E+05
             1.80991163809254387E+05
 ETA= 2116   1.80346840843446291E+05   1.80392602827459545E+05   1.80440996069576155E+05   1.80488768290780979E+05   1.80535874500496982E+05
             1.80582874646529759E+05   1.80630780918453034E+05   1.80680552886844234E+05   1.80731909360475547E+05   1.80784867497748288E+05
             1.80843711521273071E+05
