*
* Deltares, Delft3D-RGFGRID Version 4.17.04.11240, Apr 13 2010, 20:40:47
* File creation date: 2011-03-11, 15:58:13
*
Coordinate System = Cartesian
      21      21
 0 0 0
 ETA=    1   5.00000000000000000E+02   1.50000000000000000E+03   2.50000000000000000E+03   3.50000000000000000E+03   4.50000000000000000E+03
             5.50000000000000000E+03   6.50000000000000000E+03   7.50000000000000000E+03   8.50000000000000000E+03   9.50000000000000000E+03
             1.05000000000000000E+04   1.15000000000000000E+04   1.25000000000000000E+04   1.35000000000000000E+04   1.45000000000000000E+04
             1.55000000000000000E+04   1.65000000000000000E+04   1.75000000000000000E+04   1.85000000000000000E+04   1.95000000000000000E+04
             2.05000000000000000E+04
 ETA=    2   5.00000000000000000E+02   1.50000000000000000E+03   2.50000000000000000E+03   3.50000000000000000E+03   4.50000000000000000E+03
             5.50000000000000000E+03   6.50000000000000000E+03   7.50000000000000000E+03   8.50000000000000000E+03   9.50000000000000000E+03
             1.05000000000000000E+04   1.15000000000000000E+04   1.25000000000000000E+04   1.35000000000000000E+04   1.45000000000000000E+04
             1.55000000000000000E+04   1.65000000000000000E+04   1.75000000000000000E+04   1.85000000000000000E+04   1.95000000000000000E+04
             2.05000000000000000E+04
 ETA=    3   5.00000000000000000E+02   1.50000000000000000E+03   2.50000000000000000E+03   3.50000000000000000E+03   4.50000000000000000E+03
             5.50000000000000000E+03   6.50000000000000000E+03   7.50000000000000000E+03   8.50000000000000000E+03   9.50000000000000000E+03
             1.05000000000000000E+04   1.15000000000000000E+04   1.25000000000000000E+04   1.35000000000000000E+04   1.45000000000000000E+04
             1.55000000000000000E+04   1.65000000000000000E+04   1.75000000000000000E+04   1.85000000000000000E+04   1.95000000000000000E+04
             2.05000000000000000E+04
 ETA=    4   5.00000000000000000E+02   1.50000000000000000E+03   2.50000000000000000E+03   3.50000000000000000E+03   4.50000000000000000E+03
             5.50000000000000000E+03   6.50000000000000000E+03   7.50000000000000000E+03   8.50000000000000000E+03   9.50000000000000000E+03
             1.05000000000000000E+04   1.15000000000000000E+04   1.25000000000000000E+04   1.35000000000000000E+04   1.45000000000000000E+04
             1.55000000000000000E+04   1.65000000000000000E+04   1.75000000000000000E+04   1.85000000000000000E+04   1.95000000000000000E+04
             2.05000000000000000E+04
 ETA=    5   5.00000000000000000E+02   1.50000000000000000E+03   2.50000000000000000E+03   3.50000000000000000E+03   4.50000000000000000E+03
             5.50000000000000000E+03   6.50000000000000000E+03   7.50000000000000000E+03   8.50000000000000000E+03   9.50000000000000000E+03
             1.05000000000000000E+04   1.15000000000000000E+04   1.25000000000000000E+04   1.35000000000000000E+04   1.45000000000000000E+04
             1.55000000000000000E+04   1.65000000000000000E+04   1.75000000000000000E+04   1.85000000000000000E+04   1.95000000000000000E+04
             2.05000000000000000E+04
 ETA=    6   5.00000000000000000E+02   1.50000000000000000E+03   2.50000000000000000E+03   3.50000000000000000E+03   4.50000000000000000E+03
             5.50000000000000000E+03   6.50000000000000000E+03   7.50000000000000000E+03   8.50000000000000000E+03   9.50000000000000000E+03
             1.05000000000000000E+04   1.15000000000000000E+04   1.25000000000000000E+04   1.35000000000000000E+04   1.45000000000000000E+04
             1.55000000000000000E+04   1.65000000000000000E+04   1.75000000000000000E+04   1.85000000000000000E+04   1.95000000000000000E+04
             2.05000000000000000E+04
 ETA=    7   5.00000000000000000E+02   1.50000000000000000E+03   2.50000000000000000E+03   3.50000000000000000E+03   4.50000000000000000E+03
             5.50000000000000000E+03   6.50000000000000000E+03   7.50000000000000000E+03   8.50000000000000000E+03   9.50000000000000000E+03
             1.05000000000000000E+04   1.15000000000000000E+04   1.25000000000000000E+04   1.35000000000000000E+04   1.45000000000000000E+04
             1.55000000000000000E+04   1.65000000000000000E+04   1.75000000000000000E+04   1.85000000000000000E+04   1.95000000000000000E+04
             2.05000000000000000E+04
 ETA=    8   5.00000000000000000E+02   1.50000000000000000E+03   2.50000000000000000E+03   3.50000000000000000E+03   4.50000000000000000E+03
             5.50000000000000000E+03   6.50000000000000000E+03   7.50000000000000000E+03   8.50000000000000000E+03   9.50000000000000000E+03
             1.05000000000000000E+04   1.15000000000000000E+04   1.25000000000000000E+04   1.35000000000000000E+04   1.45000000000000000E+04
             1.55000000000000000E+04   1.65000000000000000E+04   1.75000000000000000E+04   1.85000000000000000E+04   1.95000000000000000E+04
             2.05000000000000000E+04
 ETA=    9   5.00000000000000000E+02   1.50000000000000000E+03   2.50000000000000000E+03   3.50000000000000000E+03   4.50000000000000000E+03
             5.50000000000000000E+03   6.50000000000000000E+03   7.50000000000000000E+03   8.50000000000000000E+03   9.50000000000000000E+03
             1.05000000000000000E+04   1.15000000000000000E+04   1.25000000000000000E+04   1.35000000000000000E+04   1.45000000000000000E+04
             1.55000000000000000E+04   1.65000000000000000E+04   1.75000000000000000E+04   1.85000000000000000E+04   1.95000000000000000E+04
             2.05000000000000000E+04
 ETA=   10   5.00000000000000000E+02   1.50000000000000000E+03   2.50000000000000000E+03   3.50000000000000000E+03   4.50000000000000000E+03
             5.50000000000000000E+03   6.50000000000000000E+03   7.50000000000000000E+03   8.50000000000000000E+03   9.50000000000000000E+03
             1.05000000000000000E+04   1.15000000000000000E+04   1.25000000000000000E+04   1.35000000000000000E+04   1.45000000000000000E+04
             1.55000000000000000E+04   1.65000000000000000E+04   1.75000000000000000E+04   1.85000000000000000E+04   1.95000000000000000E+04
             2.05000000000000000E+04
 ETA=   11   5.00000000000000000E+02   1.50000000000000000E+03   2.50000000000000000E+03   3.50000000000000000E+03   4.50000000000000000E+03
             5.50000000000000000E+03   6.50000000000000000E+03   7.50000000000000000E+03   8.50000000000000000E+03   9.50000000000000000E+03
             1.05000000000000000E+04   1.15000000000000000E+04   1.25000000000000000E+04   1.35000000000000000E+04   1.45000000000000000E+04
             1.55000000000000000E+04   1.65000000000000000E+04   1.75000000000000000E+04   1.85000000000000000E+04   1.95000000000000000E+04
             2.05000000000000000E+04
 ETA=   12   5.00000000000000000E+02   1.50000000000000000E+03   2.50000000000000000E+03   3.50000000000000000E+03   4.50000000000000000E+03
             5.50000000000000000E+03   6.50000000000000000E+03   7.50000000000000000E+03   8.50000000000000000E+03   9.50000000000000000E+03
             1.05000000000000000E+04   1.15000000000000000E+04   1.25000000000000000E+04   1.35000000000000000E+04   1.45000000000000000E+04
             1.55000000000000000E+04   1.65000000000000000E+04   1.75000000000000000E+04   1.85000000000000000E+04   1.95000000000000000E+04
             2.05000000000000000E+04
 ETA=   13   5.00000000000000000E+02   1.50000000000000000E+03   2.50000000000000000E+03   3.50000000000000000E+03   4.50000000000000000E+03
             5.50000000000000000E+03   6.50000000000000000E+03   7.50000000000000000E+03   8.50000000000000000E+03   9.50000000000000000E+03
             1.05000000000000000E+04   1.15000000000000000E+04   1.25000000000000000E+04   1.35000000000000000E+04   1.45000000000000000E+04
             1.55000000000000000E+04   1.65000000000000000E+04   1.75000000000000000E+04   1.85000000000000000E+04   1.95000000000000000E+04
             2.05000000000000000E+04
 ETA=   14   5.00000000000000000E+02   1.50000000000000000E+03   2.50000000000000000E+03   3.50000000000000000E+03   4.50000000000000000E+03
             5.50000000000000000E+03   6.50000000000000000E+03   7.50000000000000000E+03   8.50000000000000000E+03   9.50000000000000000E+03
             1.05000000000000000E+04   1.15000000000000000E+04   1.25000000000000000E+04   1.35000000000000000E+04   1.45000000000000000E+04
             1.55000000000000000E+04   1.65000000000000000E+04   1.75000000000000000E+04   1.85000000000000000E+04   1.95000000000000000E+04
             2.05000000000000000E+04
 ETA=   15   5.00000000000000000E+02   1.50000000000000000E+03   2.50000000000000000E+03   3.50000000000000000E+03   4.50000000000000000E+03
             5.50000000000000000E+03   6.50000000000000000E+03   7.50000000000000000E+03   8.50000000000000000E+03   9.50000000000000000E+03
             1.05000000000000000E+04   1.15000000000000000E+04   1.25000000000000000E+04   1.35000000000000000E+04   1.45000000000000000E+04
             1.55000000000000000E+04   1.65000000000000000E+04   1.75000000000000000E+04   1.85000000000000000E+04   1.95000000000000000E+04
             2.05000000000000000E+04
 ETA=   16   5.00000000000000000E+02   1.50000000000000000E+03   2.50000000000000000E+03   3.50000000000000000E+03   4.50000000000000000E+03
             5.50000000000000000E+03   6.50000000000000000E+03   7.50000000000000000E+03   8.50000000000000000E+03   9.50000000000000000E+03
             1.05000000000000000E+04   1.15000000000000000E+04   1.25000000000000000E+04   1.35000000000000000E+04   1.45000000000000000E+04
             1.55000000000000000E+04   1.65000000000000000E+04   1.75000000000000000E+04   1.85000000000000000E+04   1.95000000000000000E+04
             2.05000000000000000E+04
 ETA=   17   5.00000000000000000E+02   1.50000000000000000E+03   2.50000000000000000E+03   3.50000000000000000E+03   4.50000000000000000E+03
             5.50000000000000000E+03   6.50000000000000000E+03   7.50000000000000000E+03   8.50000000000000000E+03   9.50000000000000000E+03
             1.05000000000000000E+04   1.15000000000000000E+04   1.25000000000000000E+04   1.35000000000000000E+04   1.45000000000000000E+04
             1.55000000000000000E+04   1.65000000000000000E+04   1.75000000000000000E+04   1.85000000000000000E+04   1.95000000000000000E+04
             2.05000000000000000E+04
 ETA=   18   5.00000000000000000E+02   1.50000000000000000E+03   2.50000000000000000E+03   3.50000000000000000E+03   4.50000000000000000E+03
             5.50000000000000000E+03   6.50000000000000000E+03   7.50000000000000000E+03   8.50000000000000000E+03   9.50000000000000000E+03
             1.05000000000000000E+04   1.15000000000000000E+04   1.25000000000000000E+04   1.35000000000000000E+04   1.45000000000000000E+04
             1.55000000000000000E+04   1.65000000000000000E+04   1.75000000000000000E+04   1.85000000000000000E+04   1.95000000000000000E+04
             2.05000000000000000E+04
 ETA=   19   5.00000000000000000E+02   1.50000000000000000E+03   2.50000000000000000E+03   3.50000000000000000E+03   4.50000000000000000E+03
             5.50000000000000000E+03   6.50000000000000000E+03   7.50000000000000000E+03   8.50000000000000000E+03   9.50000000000000000E+03
             1.05000000000000000E+04   1.15000000000000000E+04   1.25000000000000000E+04   1.35000000000000000E+04   1.45000000000000000E+04
             1.55000000000000000E+04   1.65000000000000000E+04   1.75000000000000000E+04   1.85000000000000000E+04   1.95000000000000000E+04
             2.05000000000000000E+04
 ETA=   20   5.00000000000000000E+02   1.50000000000000000E+03   2.50000000000000000E+03   3.50000000000000000E+03   4.50000000000000000E+03
             5.50000000000000000E+03   6.50000000000000000E+03   7.50000000000000000E+03   8.50000000000000000E+03   9.50000000000000000E+03
             1.05000000000000000E+04   1.15000000000000000E+04   1.25000000000000000E+04   1.35000000000000000E+04   1.45000000000000000E+04
             1.55000000000000000E+04   1.65000000000000000E+04   1.75000000000000000E+04   1.85000000000000000E+04   1.95000000000000000E+04
             2.05000000000000000E+04
 ETA=   21   5.00000000000000000E+02   1.50000000000000000E+03   2.50000000000000000E+03   3.50000000000000000E+03   4.50000000000000000E+03
             5.50000000000000000E+03   6.50000000000000000E+03   7.50000000000000000E+03   8.50000000000000000E+03   9.50000000000000000E+03
             1.05000000000000000E+04   1.15000000000000000E+04   1.25000000000000000E+04   1.35000000000000000E+04   1.45000000000000000E+04
             1.55000000000000000E+04   1.65000000000000000E+04   1.75000000000000000E+04   1.85000000000000000E+04   1.95000000000000000E+04
             2.05000000000000000E+04
 ETA=    1   5.00000000000000000E+02   5.00000000000000000E+02   5.00000000000000000E+02   5.00000000000000000E+02   5.00000000000000000E+02
             5.00000000000000000E+02   5.00000000000000000E+02   5.00000000000000000E+02   5.00000000000000000E+02   5.00000000000000000E+02
             5.00000000000000000E+02   5.00000000000000000E+02   5.00000000000000000E+02   5.00000000000000000E+02   5.00000000000000000E+02
             5.00000000000000000E+02   5.00000000000000000E+02   5.00000000000000000E+02   5.00000000000000000E+02   5.00000000000000000E+02
             5.00000000000000000E+02
 ETA=    2   1.50000000000000000E+03   1.50000000000000000E+03   1.50000000000000000E+03   1.50000000000000000E+03   1.50000000000000000E+03
             1.50000000000000000E+03   1.50000000000000000E+03   1.50000000000000000E+03   1.50000000000000000E+03   1.50000000000000000E+03
             1.50000000000000000E+03   1.50000000000000000E+03   1.50000000000000000E+03   1.50000000000000000E+03   1.50000000000000000E+03
             1.50000000000000000E+03   1.50000000000000000E+03   1.50000000000000000E+03   1.50000000000000000E+03   1.50000000000000000E+03
             1.50000000000000000E+03
 ETA=    3   2.50000000000000000E+03   2.50000000000000000E+03   2.50000000000000000E+03   2.50000000000000000E+03   2.50000000000000000E+03
             2.50000000000000000E+03   2.50000000000000000E+03   2.50000000000000000E+03   2.50000000000000000E+03   2.50000000000000000E+03
             2.50000000000000000E+03   2.50000000000000000E+03   2.50000000000000000E+03   2.50000000000000000E+03   2.50000000000000000E+03
             2.50000000000000000E+03   2.50000000000000000E+03   2.50000000000000000E+03   2.50000000000000000E+03   2.50000000000000000E+03
             2.50000000000000000E+03
 ETA=    4   3.50000000000000000E+03   3.50000000000000000E+03   3.50000000000000000E+03   3.50000000000000000E+03   3.50000000000000000E+03
             3.50000000000000000E+03   3.50000000000000000E+03   3.50000000000000000E+03   3.50000000000000000E+03   3.50000000000000000E+03
             3.50000000000000000E+03   3.50000000000000000E+03   3.50000000000000000E+03   3.50000000000000000E+03   3.50000000000000000E+03
             3.50000000000000000E+03   3.50000000000000000E+03   3.50000000000000000E+03   3.50000000000000000E+03   3.50000000000000000E+03
             3.50000000000000000E+03
 ETA=    5   4.50000000000000000E+03   4.50000000000000000E+03   4.50000000000000000E+03   4.50000000000000000E+03   4.50000000000000000E+03
             4.50000000000000000E+03   4.50000000000000000E+03   4.50000000000000000E+03   4.50000000000000000E+03   4.50000000000000000E+03
             4.50000000000000000E+03   4.50000000000000000E+03   4.50000000000000000E+03   4.50000000000000000E+03   4.50000000000000000E+03
             4.50000000000000000E+03   4.50000000000000000E+03   4.50000000000000000E+03   4.50000000000000000E+03   4.50000000000000000E+03
             4.50000000000000000E+03
 ETA=    6   5.50000000000000000E+03   5.50000000000000000E+03   5.50000000000000000E+03   5.50000000000000000E+03   5.50000000000000000E+03
             5.50000000000000000E+03   5.50000000000000000E+03   5.50000000000000000E+03   5.50000000000000000E+03   5.50000000000000000E+03
             5.50000000000000000E+03   5.50000000000000000E+03   5.50000000000000000E+03   5.50000000000000000E+03   5.50000000000000000E+03
             5.50000000000000000E+03   5.50000000000000000E+03   5.50000000000000000E+03   5.50000000000000000E+03   5.50000000000000000E+03
             5.50000000000000000E+03
 ETA=    7   6.50000000000000000E+03   6.50000000000000000E+03   6.50000000000000000E+03   6.50000000000000000E+03   6.50000000000000000E+03
             6.50000000000000000E+03   6.50000000000000000E+03   6.50000000000000000E+03   6.50000000000000000E+03   6.50000000000000000E+03
             6.50000000000000000E+03   6.50000000000000000E+03   6.50000000000000000E+03   6.50000000000000000E+03   6.50000000000000000E+03
             6.50000000000000000E+03   6.50000000000000000E+03   6.50000000000000000E+03   6.50000000000000000E+03   6.50000000000000000E+03
             6.50000000000000000E+03
 ETA=    8   7.50000000000000000E+03   7.50000000000000000E+03   7.50000000000000000E+03   7.50000000000000000E+03   7.50000000000000000E+03
             7.50000000000000000E+03   7.50000000000000000E+03   7.50000000000000000E+03   7.50000000000000000E+03   7.50000000000000000E+03
             7.50000000000000000E+03   7.50000000000000000E+03   7.50000000000000000E+03   7.50000000000000000E+03   7.50000000000000000E+03
             7.50000000000000000E+03   7.50000000000000000E+03   7.50000000000000000E+03   7.50000000000000000E+03   7.50000000000000000E+03
             7.50000000000000000E+03
 ETA=    9   8.50000000000000000E+03   8.50000000000000000E+03   8.50000000000000000E+03   8.50000000000000000E+03   8.50000000000000000E+03
             8.50000000000000000E+03   8.50000000000000000E+03   8.50000000000000000E+03   8.50000000000000000E+03   8.50000000000000000E+03
             8.50000000000000000E+03   8.50000000000000000E+03   8.50000000000000000E+03   8.50000000000000000E+03   8.50000000000000000E+03
             8.50000000000000000E+03   8.50000000000000000E+03   8.50000000000000000E+03   8.50000000000000000E+03   8.50000000000000000E+03
             8.50000000000000000E+03
 ETA=   10   9.50000000000000000E+03   9.50000000000000000E+03   9.50000000000000000E+03   9.50000000000000000E+03   9.50000000000000000E+03
             9.50000000000000000E+03   9.50000000000000000E+03   9.50000000000000000E+03   9.50000000000000000E+03   9.50000000000000000E+03
             9.50000000000000000E+03   9.50000000000000000E+03   9.50000000000000000E+03   9.50000000000000000E+03   9.50000000000000000E+03
             9.50000000000000000E+03   9.50000000000000000E+03   9.50000000000000000E+03   9.50000000000000000E+03   9.50000000000000000E+03
             9.50000000000000000E+03
 ETA=   11   1.05000000000000000E+04   1.05000000000000000E+04   1.05000000000000000E+04   1.05000000000000000E+04   1.05000000000000000E+04
             1.05000000000000000E+04   1.05000000000000000E+04   1.05000000000000000E+04   1.05000000000000000E+04   1.05000000000000000E+04
             1.05000000000000000E+04   1.05000000000000000E+04   1.05000000000000000E+04   1.05000000000000000E+04   1.05000000000000000E+04
             1.05000000000000000E+04   1.05000000000000000E+04   1.05000000000000000E+04   1.05000000000000000E+04   1.05000000000000000E+04
             1.05000000000000000E+04
 ETA=   12   1.15000000000000000E+04   1.15000000000000000E+04   1.15000000000000000E+04   1.15000000000000000E+04   1.15000000000000000E+04
             1.15000000000000000E+04   1.15000000000000000E+04   1.15000000000000000E+04   1.15000000000000000E+04   1.15000000000000000E+04
             1.15000000000000000E+04   1.15000000000000000E+04   1.15000000000000000E+04   1.15000000000000000E+04   1.15000000000000000E+04
             1.15000000000000000E+04   1.15000000000000000E+04   1.15000000000000000E+04   1.15000000000000000E+04   1.15000000000000000E+04
             1.15000000000000000E+04
 ETA=   13   1.25000000000000000E+04   1.25000000000000000E+04   1.25000000000000000E+04   1.25000000000000000E+04   1.25000000000000000E+04
             1.25000000000000000E+04   1.25000000000000000E+04   1.25000000000000000E+04   1.25000000000000000E+04   1.25000000000000000E+04
             1.25000000000000000E+04   1.25000000000000000E+04   1.25000000000000000E+04   1.25000000000000000E+04   1.25000000000000000E+04
             1.25000000000000000E+04   1.25000000000000000E+04   1.25000000000000000E+04   1.25000000000000000E+04   1.25000000000000000E+04
             1.25000000000000000E+04
 ETA=   14   1.35000000000000000E+04   1.35000000000000000E+04   1.35000000000000000E+04   1.35000000000000000E+04   1.35000000000000000E+04
             1.35000000000000000E+04   1.35000000000000000E+04   1.35000000000000000E+04   1.35000000000000000E+04   1.35000000000000000E+04
             1.35000000000000000E+04   1.35000000000000000E+04   1.35000000000000000E+04   1.35000000000000000E+04   1.35000000000000000E+04
             1.35000000000000000E+04   1.35000000000000000E+04   1.35000000000000000E+04   1.35000000000000000E+04   1.35000000000000000E+04
             1.35000000000000000E+04
 ETA=   15   1.45000000000000000E+04   1.45000000000000000E+04   1.45000000000000000E+04   1.45000000000000000E+04   1.45000000000000000E+04
             1.45000000000000000E+04   1.45000000000000000E+04   1.45000000000000000E+04   1.45000000000000000E+04   1.45000000000000000E+04
             1.45000000000000000E+04   1.45000000000000000E+04   1.45000000000000000E+04   1.45000000000000000E+04   1.45000000000000000E+04
             1.45000000000000000E+04   1.45000000000000000E+04   1.45000000000000000E+04   1.45000000000000000E+04   1.45000000000000000E+04
             1.45000000000000000E+04
 ETA=   16   1.55000000000000000E+04   1.55000000000000000E+04   1.55000000000000000E+04   1.55000000000000000E+04   1.55000000000000000E+04
             1.55000000000000000E+04   1.55000000000000000E+04   1.55000000000000000E+04   1.55000000000000000E+04   1.55000000000000000E+04
             1.55000000000000000E+04   1.55000000000000000E+04   1.55000000000000000E+04   1.55000000000000000E+04   1.55000000000000000E+04
             1.55000000000000000E+04   1.55000000000000000E+04   1.55000000000000000E+04   1.55000000000000000E+04   1.55000000000000000E+04
             1.55000000000000000E+04
 ETA=   17   1.65000000000000000E+04   1.65000000000000000E+04   1.65000000000000000E+04   1.65000000000000000E+04   1.65000000000000000E+04
             1.65000000000000000E+04   1.65000000000000000E+04   1.65000000000000000E+04   1.65000000000000000E+04   1.65000000000000000E+04
             1.65000000000000000E+04   1.65000000000000000E+04   1.65000000000000000E+04   1.65000000000000000E+04   1.65000000000000000E+04
             1.65000000000000000E+04   1.65000000000000000E+04   1.65000000000000000E+04   1.65000000000000000E+04   1.65000000000000000E+04
             1.65000000000000000E+04
 ETA=   18   1.75000000000000000E+04   1.75000000000000000E+04   1.75000000000000000E+04   1.75000000000000000E+04   1.75000000000000000E+04
             1.75000000000000000E+04   1.75000000000000000E+04   1.75000000000000000E+04   1.75000000000000000E+04   1.75000000000000000E+04
             1.75000000000000000E+04   1.75000000000000000E+04   1.75000000000000000E+04   1.75000000000000000E+04   1.75000000000000000E+04
             1.75000000000000000E+04   1.75000000000000000E+04   1.75000000000000000E+04   1.75000000000000000E+04   1.75000000000000000E+04
             1.75000000000000000E+04
 ETA=   19   1.85000000000000000E+04   1.85000000000000000E+04   1.85000000000000000E+04   1.85000000000000000E+04   1.85000000000000000E+04
             1.85000000000000000E+04   1.85000000000000000E+04   1.85000000000000000E+04   1.85000000000000000E+04   1.85000000000000000E+04
             1.85000000000000000E+04   1.85000000000000000E+04   1.85000000000000000E+04   1.85000000000000000E+04   1.85000000000000000E+04
             1.85000000000000000E+04   1.85000000000000000E+04   1.85000000000000000E+04   1.85000000000000000E+04   1.85000000000000000E+04
             1.85000000000000000E+04
 ETA=   20   1.95000000000000000E+04   1.95000000000000000E+04   1.95000000000000000E+04   1.95000000000000000E+04   1.95000000000000000E+04
             1.95000000000000000E+04   1.95000000000000000E+04   1.95000000000000000E+04   1.95000000000000000E+04   1.95000000000000000E+04
             1.95000000000000000E+04   1.95000000000000000E+04   1.95000000000000000E+04   1.95000000000000000E+04   1.95000000000000000E+04
             1.95000000000000000E+04   1.95000000000000000E+04   1.95000000000000000E+04   1.95000000000000000E+04   1.95000000000000000E+04
             1.95000000000000000E+04
 ETA=   21   2.05000000000000000E+04   2.05000000000000000E+04   2.05000000000000000E+04   2.05000000000000000E+04   2.05000000000000000E+04
             2.05000000000000000E+04   2.05000000000000000E+04   2.05000000000000000E+04   2.05000000000000000E+04   2.05000000000000000E+04
             2.05000000000000000E+04   2.05000000000000000E+04   2.05000000000000000E+04   2.05000000000000000E+04   2.05000000000000000E+04
             2.05000000000000000E+04   2.05000000000000000E+04   2.05000000000000000E+04   2.05000000000000000E+04   2.05000000000000000E+04
             2.05000000000000000E+04
