*
* Deltares, Delft3D-RGFGRID Version 4.17.03.7767, Jul 10 2009, 10:12:13
* File creation date: 2010-07-15, 14:49:24
*
Coordinate System = Cartesian
       5       4
 0 0 0
 ETA=    1  -1.00000000000000000E+04   1.00000000000000000E+04   3.00000000000000000E+04   5.00000000000000000E+04   7.00000000000000000E+04
 ETA=    2  -1.00000000000000000E+04   1.00000000000000000E+04   3.00000000000000000E+04   5.00000000000000000E+04   7.00000000000000000E+04
 ETA=    3  -1.00000000000000000E+04   1.00000000000000000E+04   3.00000000000000000E+04   5.00000000000000000E+04   7.00000000000000000E+04
 ETA=    4  -1.00000000000000000E+04   1.00000000000000000E+04   3.00000000000000000E+04   5.00000000000000000E+04   7.00000000000000000E+04
 ETA=    1  -1.00000000000000000E+04  -1.00000000000000000E+04  -1.00000000000000000E+04  -1.00000000000000000E+04  -1.00000000000000000E+04
 ETA=    2   2.00000000000000000E+04   2.00000000000000000E+04   2.00000000000000000E+04   2.00000000000000000E+04   2.00000000000000000E+04
 ETA=    3   5.00000000000000000E+04   5.00000000000000000E+04   5.00000000000000000E+04   5.00000000000000000E+04   5.00000000000000000E+04
 ETA=    4   8.00000000000000000E+04   8.00000000000000000E+04   8.00000000000000000E+04   8.00000000000000000E+04   8.00000000000000000E+04
