*
* Deltares, Delft3D-RGFGRID Version 4.18.00.16842, May 25 2011, 10:45:12
* File creation date: 2012-12-18, 16:21:06
*
 INTERPOLATION
DIMENSIONS OF GRID :      199       2
Derefine by        3       3
 INTERPOLATION
DIMENSIONS OF GRID :      595       4
Derefine by        3       3
 INTERPOLATION
DIMENSIONS OF GRID :     1783      10
