
********************************************************************************
***
*** Deltares, Delft3D-FLOW Version 4.00.03.565, May 27 2011, 14:41:38
***
***           runid     : river1D
***           date,time : 2012-12-18, 11:06:33
***
********************************************************************************

*** MESSAGE No Fmtbnd record found in MDF-file, item will be skipped 
*** MESSAGE No Fmtsta record found in MDF-file, item will be skipped 
*** MESSAGE Executable for 32-bits platform. 
*** MESSAGE Double precision computation using reals of kind    8 
*** MESSAGE No Fmtcco record found in MDF-file, item will be skipped 
*** MESSAGE No Fmtgrd record found in MDF-file, item will be skipped 
*** MESSAGE No Fmtbnd record found in MDF-file, item will be skipped 
*** MESSAGE Using UNESCO density formulation by default 
*** MESSAGE Momentum solver cyclic method is specified 
*** MESSAGE DRYFLP and DPSOPT both specified in MD-file. Using DPSOPT: MAX 
*** Start  of trachytopes input
TrtDt               :  10.000 min
TrtDt               : every     1 timesteps
Trtdef              : ruw.karak
Trtu                : river1D.aru
Trtv                : river1D.arv
TrtClu              : 
TrtClv              : 
TrtMnH              :   0.100 m
TrtMth              :   1
*** End    of trachytopes input
 
*** WARNING Latitude of your model is 0 degrees, model located at equator
*** WARNING File will not be created - Inconsistent comm. file times 
*** Restart file written at       7200.0000 minutes after ITDATE
 
*** Simulation finished *******************************************************
 
Performance timers:
|---------------------------------------------------------------------|
|Timer name           |       wall clock      |       CPU time        |
|                     |-----------------------|-----------------------|
|                     |       sec     |  %    |       sec     |  %    |
|---------------------------------------------------------------------|
|Initialization       |         0.11  |  1.6  |         0.11  |  1.7  | 
|Simulation           |         6.73  | 98.2  |         6.20  | 98.0  | 
|Close and stop       |         0.02  |  0.2  |         0.02  |  0.2  | 
|                     |------------- +|----- +|------------- +|----- +|
|Total                |         6.85  |100.0  |         6.33  |100.0  | 
|---------------------------------------------|-----------------------|
|Momentum eq.         |         0.19  |  2.7  |         0.19  |  3.0  | 
|Continuity eq.       |         0.28  |  4.1  |         0.28  |  4.4  | 
|Transport eq.        |         0.00  |  0.0  |         0.00  |  0.0  | 
|Turbulence           |         0.00  |  0.0  |         0.00  |  0.0  | 
|3D Morphology        |         0.00  |  0.0  |         0.00  |  0.0  | 
|Wait (dd   module)   |         0.00  |  0.0  |         0.00  |  0.0  | 
|Wait (ext. modules)  |         0.00  |  0.0  |         0.00  |  0.0  | 
|---------------------------------------------------------------------|
| Performance = CPU time / (TimeSteps*MMAX*NMAX*KMAX)                 |
|   TimeSteps   :         720                                         |
|   MMAX        :         200                                         |
|   NMAX        :           3                                         |
|   KMAX        :           1                                         |
|   Performance : 0.14648E-04 [sec]                                   |
|---------------------------------------------------------------------|
|Explanation:                                                         |
|                                                                     |
|Initialization : Everything up to the first time step                |
|Simulation     : All time steps                                      |
|Close and stop : Everything after the last time step                 |
|Total          : FLOW for this subdomain,                            |
|                 excluding allocation/deallocation of global data    |
|                                                                     |
|Momentum eq.   : Part of Simulation ("UZD")                          |
|Continuity eq. : Part of Simulation ("SUD")                          |
|Transport eq.  : Part of Simulation ("DIFU")                         |
|                 Only relevant when constituents are modelled.       |
|Turbulence     : Part of Simulation ("TURCLO, TRATUR, TUR2D")        |
|3D Morphology  : Part of Simulation ("EROSED, BOTT3D")               |
|                 Only relevant when sediments are modelled.          |
|Wait (dd)      : Part of Initialization, Simulation and Closing.     |
|                 ("NXTSTP, NXTDRY")                                  |
|                 Only relevant when DomainDecomposition is used.     |
|                 Communication with and execution of the "mappers".  |
|                 Mappers are separate threads, possibly in another   |
|                 executable, possibly on another node. They copy     |
|                 data from one subdomain to another.                 |
|                 FLOWs must wait while the mappers are executing,    |
|                 mappers must wait while the FLOWs are executing.    |
|Wait (ext)     : Part of Initialization, Simulation and Closing.     |
|                 ("SYNC, _TO_, _FROM_")                              |
|                 Communication with and execution of all "external"  |
|                 modules:                                            |
|                 Online WAVES, Online WAQ, Online RTC, Fluid Mud.    |
|                                                                     |
|---------------------------------------------------------------------|
 

********************************************************************************
***
*** FINISHED    Delft3D-FLOW
***             runid      : river1D
***             date, time : 2012-12-18, 11:06:40
***
********************************************************************************

