*
* Deltares, Delft3D-RGFGRID Version 4.17.03.7767, Jul 10 2009, 10:12:13
* File creation date: 2010-07-06, 10:30:51
*
Coordinate System = Cartesian
      81     101
 0 0 0
 ETA=    1   0.00000000000000000E+00   7.50000000000000000E+02   1.50000000000000000E+03   2.25000000000000000E+03   3.00000000000000000E+03
             3.75000000000000000E+03   4.50000000000000000E+03   5.25000000000000000E+03   6.00000000000000000E+03   6.75000000000000000E+03
             7.50000000000000000E+03   8.25000000000000000E+03   9.00000000000000000E+03   9.75000000000000000E+03   1.05000000000000000E+04
             1.12500000000000000E+04   1.20000000000000000E+04   1.27500000000000000E+04   1.35000000000000000E+04   1.42500000000000000E+04
             1.50000000000000000E+04   1.57500000000000000E+04   1.65000000000000000E+04   1.72500000000000000E+04   1.80000000000000000E+04
             1.87500000000000000E+04   1.95000000000000000E+04   2.02500000000000000E+04   2.10000000000000000E+04   2.17500000000000000E+04
             2.25000000000000000E+04   2.32500000000000000E+04   2.40000000000000000E+04   2.47500000000000000E+04   2.55000000000000000E+04
             2.62500000000000000E+04   2.70000000000000000E+04   2.77500000000000000E+04   2.85000000000000000E+04   2.92500000000000000E+04
             3.00000000000000000E+04   3.07500000000000000E+04   3.15000000000000000E+04   3.22500000000000000E+04   3.30000000000000000E+04
             3.37500000000000000E+04   3.45000000000000000E+04   3.52500000000000000E+04   3.60000000000000000E+04   3.67500000000000000E+04
             3.75000000000000000E+04   3.82500000000000000E+04   3.90000000000000000E+04   3.97500000000000000E+04   4.05000000000000000E+04
             4.12500000000000000E+04   4.20000000000000000E+04   4.27500000000000000E+04   4.35000000000000000E+04   4.42500000000000000E+04
             4.50000000000000000E+04   4.57500000000000000E+04   4.65000000000000000E+04   4.72500000000000000E+04   4.80000000000000000E+04
             4.87500000000000000E+04   4.95000000000000000E+04   5.02500000000000000E+04   5.10000000000000000E+04   5.17500000000000000E+04
             5.25000000000000000E+04   5.32500000000000000E+04   5.40000000000000000E+04   5.47500000000000000E+04   5.55000000000000000E+04
             5.62500000000000000E+04   5.70000000000000000E+04   5.77500000000000000E+04   5.85000000000000000E+04   5.92500000000000000E+04
             6.00000000000000000E+04
 ETA=    2   0.00000000000000000E+00   7.50000000000000000E+02   1.50000000000000000E+03   2.25000000000000000E+03   3.00000000000000000E+03
             3.75000000000000000E+03   4.50000000000000000E+03   5.25000000000000000E+03   6.00000000000000000E+03   6.75000000000000000E+03
             7.50000000000000000E+03   8.25000000000000000E+03   9.00000000000000000E+03   9.75000000000000000E+03   1.05000000000000000E+04
             1.12500000000000000E+04   1.20000000000000000E+04   1.27500000000000000E+04   1.35000000000000000E+04   1.42500000000000000E+04
             1.50000000000000000E+04   1.57500000000000000E+04   1.65000000000000000E+04   1.72500000000000000E+04   1.80000000000000000E+04
             1.87500000000000000E+04   1.95000000000000000E+04   2.02500000000000000E+04   2.10000000000000000E+04   2.17500000000000000E+04
             2.25000000000000000E+04   2.32500000000000000E+04   2.40000000000000000E+04   2.47500000000000000E+04   2.55000000000000000E+04
             2.62500000000000000E+04   2.70000000000000000E+04   2.77500000000000000E+04   2.85000000000000000E+04   2.92500000000000000E+04
             3.00000000000000000E+04   3.07500000000000000E+04   3.15000000000000000E+04   3.22500000000000000E+04   3.30000000000000000E+04
             3.37500000000000000E+04   3.45000000000000000E+04   3.52500000000000000E+04   3.60000000000000000E+04   3.67500000000000000E+04
             3.75000000000000000E+04   3.82500000000000000E+04   3.90000000000000000E+04   3.97500000000000000E+04   4.05000000000000000E+04
             4.12500000000000000E+04   4.20000000000000000E+04   4.27500000000000000E+04   4.35000000000000000E+04   4.42500000000000000E+04
             4.50000000000000000E+04   4.57500000000000000E+04   4.65000000000000000E+04   4.72500000000000000E+04   4.80000000000000000E+04
             4.87500000000000000E+04   4.95000000000000000E+04   5.02500000000000000E+04   5.10000000000000000E+04   5.17500000000000000E+04
             5.25000000000000000E+04   5.32500000000000000E+04   5.40000000000000000E+04   5.47500000000000000E+04   5.55000000000000000E+04
             5.62500000000000000E+04   5.70000000000000000E+04   5.77500000000000000E+04   5.85000000000000000E+04   5.92500000000000000E+04
             6.00000000000000000E+04
 ETA=    3   0.00000000000000000E+00   7.50000000000000000E+02   1.50000000000000000E+03   2.25000000000000000E+03   3.00000000000000000E+03
             3.75000000000000000E+03   4.50000000000000000E+03   5.25000000000000000E+03   6.00000000000000000E+03   6.75000000000000000E+03
             7.50000000000000000E+03   8.25000000000000000E+03   9.00000000000000000E+03   9.75000000000000000E+03   1.05000000000000000E+04
             1.12500000000000000E+04   1.20000000000000000E+04   1.27500000000000000E+04   1.35000000000000000E+04   1.42500000000000000E+04
             1.50000000000000000E+04   1.57500000000000000E+04   1.65000000000000000E+04   1.72500000000000000E+04   1.80000000000000000E+04
             1.87500000000000000E+04   1.95000000000000000E+04   2.02500000000000000E+04   2.10000000000000000E+04   2.17500000000000000E+04
             2.25000000000000000E+04   2.32500000000000000E+04   2.40000000000000000E+04   2.47500000000000000E+04   2.55000000000000000E+04
             2.62500000000000000E+04   2.70000000000000000E+04   2.77500000000000000E+04   2.85000000000000000E+04   2.92500000000000000E+04
             3.00000000000000000E+04   3.07500000000000000E+04   3.15000000000000000E+04   3.22500000000000000E+04   3.30000000000000000E+04
             3.37500000000000000E+04   3.45000000000000000E+04   3.52500000000000000E+04   3.60000000000000000E+04   3.67500000000000000E+04
             3.75000000000000000E+04   3.82500000000000000E+04   3.90000000000000000E+04   3.97500000000000000E+04   4.05000000000000000E+04
             4.12500000000000000E+04   4.20000000000000000E+04   4.27500000000000000E+04   4.35000000000000000E+04   4.42500000000000000E+04
             4.50000000000000000E+04   4.57500000000000000E+04   4.65000000000000000E+04   4.72500000000000000E+04   4.80000000000000000E+04
             4.87500000000000000E+04   4.95000000000000000E+04   5.02500000000000000E+04   5.10000000000000000E+04   5.17500000000000000E+04
             5.25000000000000000E+04   5.32500000000000000E+04   5.40000000000000000E+04   5.47500000000000000E+04   5.55000000000000000E+04
             5.62500000000000000E+04   5.70000000000000000E+04   5.77500000000000000E+04   5.85000000000000000E+04   5.92500000000000000E+04
             6.00000000000000000E+04
 ETA=    4   0.00000000000000000E+00   7.50000000000000000E+02   1.50000000000000000E+03   2.25000000000000000E+03   3.00000000000000000E+03
             3.75000000000000000E+03   4.50000000000000000E+03   5.25000000000000000E+03   6.00000000000000000E+03   6.75000000000000000E+03
             7.50000000000000000E+03   8.25000000000000000E+03   9.00000000000000000E+03   9.75000000000000000E+03   1.05000000000000000E+04
             1.12500000000000000E+04   1.20000000000000000E+04   1.27500000000000000E+04   1.35000000000000000E+04   1.42500000000000000E+04
             1.50000000000000000E+04   1.57500000000000000E+04   1.65000000000000000E+04   1.72500000000000000E+04   1.80000000000000000E+04
             1.87500000000000000E+04   1.95000000000000000E+04   2.02500000000000000E+04   2.10000000000000000E+04   2.17500000000000000E+04
             2.25000000000000000E+04   2.32500000000000000E+04   2.40000000000000000E+04   2.47500000000000000E+04   2.55000000000000000E+04
             2.62500000000000000E+04   2.70000000000000000E+04   2.77500000000000000E+04   2.85000000000000000E+04   2.92500000000000000E+04
             3.00000000000000000E+04   3.07500000000000000E+04   3.15000000000000000E+04   3.22500000000000000E+04   3.30000000000000000E+04
             3.37500000000000000E+04   3.45000000000000000E+04   3.52500000000000000E+04   3.60000000000000000E+04   3.67500000000000000E+04
             3.75000000000000000E+04   3.82500000000000000E+04   3.90000000000000000E+04   3.97500000000000000E+04   4.05000000000000000E+04
             4.12500000000000000E+04   4.20000000000000000E+04   4.27500000000000000E+04   4.35000000000000000E+04   4.42500000000000000E+04
             4.50000000000000000E+04   4.57500000000000000E+04   4.65000000000000000E+04   4.72500000000000000E+04   4.80000000000000000E+04
             4.87500000000000000E+04   4.95000000000000000E+04   5.02500000000000000E+04   5.10000000000000000E+04   5.17500000000000000E+04
             5.25000000000000000E+04   5.32500000000000000E+04   5.40000000000000000E+04   5.47500000000000000E+04   5.55000000000000000E+04
             5.62500000000000000E+04   5.70000000000000000E+04   5.77500000000000000E+04   5.85000000000000000E+04   5.92500000000000000E+04
             6.00000000000000000E+04
 ETA=    5   0.00000000000000000E+00   7.50000000000000000E+02   1.50000000000000000E+03   2.25000000000000000E+03   3.00000000000000000E+03
             3.75000000000000000E+03   4.50000000000000000E+03   5.25000000000000000E+03   6.00000000000000000E+03   6.75000000000000000E+03
             7.50000000000000000E+03   8.25000000000000000E+03   9.00000000000000000E+03   9.75000000000000000E+03   1.05000000000000000E+04
             1.12500000000000000E+04   1.20000000000000000E+04   1.27500000000000000E+04   1.35000000000000000E+04   1.42500000000000000E+04
             1.50000000000000000E+04   1.57500000000000000E+04   1.65000000000000000E+04   1.72500000000000000E+04   1.80000000000000000E+04
             1.87500000000000000E+04   1.95000000000000000E+04   2.02500000000000000E+04   2.10000000000000000E+04   2.17500000000000000E+04
             2.25000000000000000E+04   2.32500000000000000E+04   2.40000000000000000E+04   2.47500000000000000E+04   2.55000000000000000E+04
             2.62500000000000000E+04   2.70000000000000000E+04   2.77500000000000000E+04   2.85000000000000000E+04   2.92500000000000000E+04
             3.00000000000000000E+04   3.07500000000000000E+04   3.15000000000000000E+04   3.22500000000000000E+04   3.30000000000000000E+04
             3.37500000000000000E+04   3.45000000000000000E+04   3.52500000000000000E+04   3.60000000000000000E+04   3.67500000000000000E+04
             3.75000000000000000E+04   3.82500000000000000E+04   3.90000000000000000E+04   3.97500000000000000E+04   4.05000000000000000E+04
             4.12500000000000000E+04   4.20000000000000000E+04   4.27500000000000000E+04   4.35000000000000000E+04   4.42500000000000000E+04
             4.50000000000000000E+04   4.57500000000000000E+04   4.65000000000000000E+04   4.72500000000000000E+04   4.80000000000000000E+04
             4.87500000000000000E+04   4.95000000000000000E+04   5.02500000000000000E+04   5.10000000000000000E+04   5.17500000000000000E+04
             5.25000000000000000E+04   5.32500000000000000E+04   5.40000000000000000E+04   5.47500000000000000E+04   5.55000000000000000E+04
             5.62500000000000000E+04   5.70000000000000000E+04   5.77500000000000000E+04   5.85000000000000000E+04   5.92500000000000000E+04
             6.00000000000000000E+04
 ETA=    6   0.00000000000000000E+00   7.50000000000000000E+02   1.50000000000000000E+03   2.25000000000000000E+03   3.00000000000000000E+03
             3.75000000000000000E+03   4.50000000000000000E+03   5.25000000000000000E+03   6.00000000000000000E+03   6.75000000000000000E+03
             7.50000000000000000E+03   8.25000000000000000E+03   9.00000000000000000E+03   9.75000000000000000E+03   1.05000000000000000E+04
             1.12500000000000000E+04   1.20000000000000000E+04   1.27500000000000000E+04   1.35000000000000000E+04   1.42500000000000000E+04
             1.50000000000000000E+04   1.57500000000000000E+04   1.65000000000000000E+04   1.72500000000000000E+04   1.80000000000000000E+04
             1.87500000000000000E+04   1.95000000000000000E+04   2.02500000000000000E+04   2.10000000000000000E+04   2.17500000000000000E+04
             2.25000000000000000E+04   2.32500000000000000E+04   2.40000000000000000E+04   2.47500000000000000E+04   2.55000000000000000E+04
             2.62500000000000000E+04   2.70000000000000000E+04   2.77500000000000000E+04   2.85000000000000000E+04   2.92500000000000000E+04
             3.00000000000000000E+04   3.07500000000000000E+04   3.15000000000000000E+04   3.22500000000000000E+04   3.30000000000000000E+04
             3.37500000000000000E+04   3.45000000000000000E+04   3.52500000000000000E+04   3.60000000000000000E+04   3.67500000000000000E+04
             3.75000000000000000E+04   3.82500000000000000E+04   3.90000000000000000E+04   3.97500000000000000E+04   4.05000000000000000E+04
             4.12500000000000000E+04   4.20000000000000000E+04   4.27500000000000000E+04   4.35000000000000000E+04   4.42500000000000000E+04
             4.50000000000000000E+04   4.57500000000000000E+04   4.65000000000000000E+04   4.72500000000000000E+04   4.80000000000000000E+04
             4.87500000000000000E+04   4.95000000000000000E+04   5.02500000000000000E+04   5.10000000000000000E+04   5.17500000000000000E+04
             5.25000000000000000E+04   5.32500000000000000E+04   5.40000000000000000E+04   5.47500000000000000E+04   5.55000000000000000E+04
             5.62500000000000000E+04   5.70000000000000000E+04   5.77500000000000000E+04   5.85000000000000000E+04   5.92500000000000000E+04
             6.00000000000000000E+04
 ETA=    7   0.00000000000000000E+00   7.50000000000000000E+02   1.50000000000000000E+03   2.25000000000000000E+03   3.00000000000000000E+03
             3.75000000000000000E+03   4.50000000000000000E+03   5.25000000000000000E+03   6.00000000000000000E+03   6.75000000000000000E+03
             7.50000000000000000E+03   8.25000000000000000E+03   9.00000000000000000E+03   9.75000000000000000E+03   1.05000000000000000E+04
             1.12500000000000000E+04   1.20000000000000000E+04   1.27500000000000000E+04   1.35000000000000000E+04   1.42500000000000000E+04
             1.50000000000000000E+04   1.57500000000000000E+04   1.65000000000000000E+04   1.72500000000000000E+04   1.80000000000000000E+04
             1.87500000000000000E+04   1.95000000000000000E+04   2.02500000000000000E+04   2.10000000000000000E+04   2.17500000000000000E+04
             2.25000000000000000E+04   2.32500000000000000E+04   2.40000000000000000E+04   2.47500000000000000E+04   2.55000000000000000E+04
             2.62500000000000000E+04   2.70000000000000000E+04   2.77500000000000000E+04   2.85000000000000000E+04   2.92500000000000000E+04
             3.00000000000000000E+04   3.07500000000000000E+04   3.15000000000000000E+04   3.22500000000000000E+04   3.30000000000000000E+04
             3.37500000000000000E+04   3.45000000000000000E+04   3.52500000000000000E+04   3.60000000000000000E+04   3.67500000000000000E+04
             3.75000000000000000E+04   3.82500000000000000E+04   3.90000000000000000E+04   3.97500000000000000E+04   4.05000000000000000E+04
             4.12500000000000000E+04   4.20000000000000000E+04   4.27500000000000000E+04   4.35000000000000000E+04   4.42500000000000000E+04
             4.50000000000000000E+04   4.57500000000000000E+04   4.65000000000000000E+04   4.72500000000000000E+04   4.80000000000000000E+04
             4.87500000000000000E+04   4.95000000000000000E+04   5.02500000000000000E+04   5.10000000000000000E+04   5.17500000000000000E+04
             5.25000000000000000E+04   5.32500000000000000E+04   5.40000000000000000E+04   5.47500000000000000E+04   5.55000000000000000E+04
             5.62500000000000000E+04   5.70000000000000000E+04   5.77500000000000000E+04   5.85000000000000000E+04   5.92500000000000000E+04
             6.00000000000000000E+04
 ETA=    8   0.00000000000000000E+00   7.50000000000000000E+02   1.50000000000000000E+03   2.25000000000000000E+03   3.00000000000000000E+03
             3.75000000000000000E+03   4.50000000000000000E+03   5.25000000000000000E+03   6.00000000000000000E+03   6.75000000000000000E+03
             7.50000000000000000E+03   8.25000000000000000E+03   9.00000000000000000E+03   9.75000000000000000E+03   1.05000000000000000E+04
             1.12500000000000000E+04   1.20000000000000000E+04   1.27500000000000000E+04   1.35000000000000000E+04   1.42500000000000000E+04
             1.50000000000000000E+04   1.57500000000000000E+04   1.65000000000000000E+04   1.72500000000000000E+04   1.80000000000000000E+04
             1.87500000000000000E+04   1.95000000000000000E+04   2.02500000000000000E+04   2.10000000000000000E+04   2.17500000000000000E+04
             2.25000000000000000E+04   2.32500000000000000E+04   2.40000000000000000E+04   2.47500000000000000E+04   2.55000000000000000E+04
             2.62500000000000000E+04   2.70000000000000000E+04   2.77500000000000000E+04   2.85000000000000000E+04   2.92500000000000000E+04
             3.00000000000000000E+04   3.07500000000000000E+04   3.15000000000000000E+04   3.22500000000000000E+04   3.30000000000000000E+04
             3.37500000000000000E+04   3.45000000000000000E+04   3.52500000000000000E+04   3.60000000000000000E+04   3.67500000000000000E+04
             3.75000000000000000E+04   3.82500000000000000E+04   3.90000000000000000E+04   3.97500000000000000E+04   4.05000000000000000E+04
             4.12500000000000000E+04   4.20000000000000000E+04   4.27500000000000000E+04   4.35000000000000000E+04   4.42500000000000000E+04
             4.50000000000000000E+04   4.57500000000000000E+04   4.65000000000000000E+04   4.72500000000000000E+04   4.80000000000000000E+04
             4.87500000000000000E+04   4.95000000000000000E+04   5.02500000000000000E+04   5.10000000000000000E+04   5.17500000000000000E+04
             5.25000000000000000E+04   5.32500000000000000E+04   5.40000000000000000E+04   5.47500000000000000E+04   5.55000000000000000E+04
             5.62500000000000000E+04   5.70000000000000000E+04   5.77500000000000000E+04   5.85000000000000000E+04   5.92500000000000000E+04
             6.00000000000000000E+04
 ETA=    9   0.00000000000000000E+00   7.50000000000000000E+02   1.50000000000000000E+03   2.25000000000000000E+03   3.00000000000000000E+03
             3.75000000000000000E+03   4.50000000000000000E+03   5.25000000000000000E+03   6.00000000000000000E+03   6.75000000000000000E+03
             7.50000000000000000E+03   8.25000000000000000E+03   9.00000000000000000E+03   9.75000000000000000E+03   1.05000000000000000E+04
             1.12500000000000000E+04   1.20000000000000000E+04   1.27500000000000000E+04   1.35000000000000000E+04   1.42500000000000000E+04
             1.50000000000000000E+04   1.57500000000000000E+04   1.65000000000000000E+04   1.72500000000000000E+04   1.80000000000000000E+04
             1.87500000000000000E+04   1.95000000000000000E+04   2.02500000000000000E+04   2.10000000000000000E+04   2.17500000000000000E+04
             2.25000000000000000E+04   2.32500000000000000E+04   2.40000000000000000E+04   2.47500000000000000E+04   2.55000000000000000E+04
             2.62500000000000000E+04   2.70000000000000000E+04   2.77500000000000000E+04   2.85000000000000000E+04   2.92500000000000000E+04
             3.00000000000000000E+04   3.07500000000000000E+04   3.15000000000000000E+04   3.22500000000000000E+04   3.30000000000000000E+04
             3.37500000000000000E+04   3.45000000000000000E+04   3.52500000000000000E+04   3.60000000000000000E+04   3.67500000000000000E+04
             3.75000000000000000E+04   3.82500000000000000E+04   3.90000000000000000E+04   3.97500000000000000E+04   4.05000000000000000E+04
             4.12500000000000000E+04   4.20000000000000000E+04   4.27500000000000000E+04   4.35000000000000000E+04   4.42500000000000000E+04
             4.50000000000000000E+04   4.57500000000000000E+04   4.65000000000000000E+04   4.72500000000000000E+04   4.80000000000000000E+04
             4.87500000000000000E+04   4.95000000000000000E+04   5.02500000000000000E+04   5.10000000000000000E+04   5.17500000000000000E+04
             5.25000000000000000E+04   5.32500000000000000E+04   5.40000000000000000E+04   5.47500000000000000E+04   5.55000000000000000E+04
             5.62500000000000000E+04   5.70000000000000000E+04   5.77500000000000000E+04   5.85000000000000000E+04   5.92500000000000000E+04
             6.00000000000000000E+04
 ETA=   10   0.00000000000000000E+00   7.50000000000000000E+02   1.50000000000000000E+03   2.25000000000000000E+03   3.00000000000000000E+03
             3.75000000000000000E+03   4.50000000000000000E+03   5.25000000000000000E+03   6.00000000000000000E+03   6.75000000000000000E+03
             7.50000000000000000E+03   8.25000000000000000E+03   9.00000000000000000E+03   9.75000000000000000E+03   1.05000000000000000E+04
             1.12500000000000000E+04   1.20000000000000000E+04   1.27500000000000000E+04   1.35000000000000000E+04   1.42500000000000000E+04
             1.50000000000000000E+04   1.57500000000000000E+04   1.65000000000000000E+04   1.72500000000000000E+04   1.80000000000000000E+04
             1.87500000000000000E+04   1.95000000000000000E+04   2.02500000000000000E+04   2.10000000000000000E+04   2.17500000000000000E+04
             2.25000000000000000E+04   2.32500000000000000E+04   2.40000000000000000E+04   2.47500000000000000E+04   2.55000000000000000E+04
             2.62500000000000000E+04   2.70000000000000000E+04   2.77500000000000000E+04   2.85000000000000000E+04   2.92500000000000000E+04
             3.00000000000000000E+04   3.07500000000000000E+04   3.15000000000000000E+04   3.22500000000000000E+04   3.30000000000000000E+04
             3.37500000000000000E+04   3.45000000000000000E+04   3.52500000000000000E+04   3.60000000000000000E+04   3.67500000000000000E+04
             3.75000000000000000E+04   3.82500000000000000E+04   3.90000000000000000E+04   3.97500000000000000E+04   4.05000000000000000E+04
             4.12500000000000000E+04   4.20000000000000000E+04   4.27500000000000000E+04   4.35000000000000000E+04   4.42500000000000000E+04
             4.50000000000000000E+04   4.57500000000000000E+04   4.65000000000000000E+04   4.72500000000000000E+04   4.80000000000000000E+04
             4.87500000000000000E+04   4.95000000000000000E+04   5.02500000000000000E+04   5.10000000000000000E+04   5.17500000000000000E+04
             5.25000000000000000E+04   5.32500000000000000E+04   5.40000000000000000E+04   5.47500000000000000E+04   5.55000000000000000E+04
             5.62500000000000000E+04   5.70000000000000000E+04   5.77500000000000000E+04   5.85000000000000000E+04   5.92500000000000000E+04
             6.00000000000000000E+04
 ETA=   11   0.00000000000000000E+00   7.50000000000000000E+02   1.50000000000000000E+03   2.25000000000000000E+03   3.00000000000000000E+03
             3.75000000000000000E+03   4.50000000000000000E+03   5.25000000000000000E+03   6.00000000000000000E+03   6.75000000000000000E+03
             7.50000000000000000E+03   8.25000000000000000E+03   9.00000000000000000E+03   9.75000000000000000E+03   1.05000000000000000E+04
             1.12500000000000000E+04   1.20000000000000000E+04   1.27500000000000000E+04   1.35000000000000000E+04   1.42500000000000000E+04
             1.50000000000000000E+04   1.57500000000000000E+04   1.65000000000000000E+04   1.72500000000000000E+04   1.80000000000000000E+04
             1.87500000000000000E+04   1.95000000000000000E+04   2.02500000000000000E+04   2.10000000000000000E+04   2.17500000000000000E+04
             2.25000000000000000E+04   2.32500000000000000E+04   2.40000000000000000E+04   2.47500000000000000E+04   2.55000000000000000E+04
             2.62500000000000000E+04   2.70000000000000000E+04   2.77500000000000000E+04   2.85000000000000000E+04   2.92500000000000000E+04
             3.00000000000000000E+04   3.07500000000000000E+04   3.15000000000000000E+04   3.22500000000000000E+04   3.30000000000000000E+04
             3.37500000000000000E+04   3.45000000000000000E+04   3.52500000000000000E+04   3.60000000000000000E+04   3.67500000000000000E+04
             3.75000000000000000E+04   3.82500000000000000E+04   3.90000000000000000E+04   3.97500000000000000E+04   4.05000000000000000E+04
             4.12500000000000000E+04   4.20000000000000000E+04   4.27500000000000000E+04   4.35000000000000000E+04   4.42500000000000000E+04
             4.50000000000000000E+04   4.57500000000000000E+04   4.65000000000000000E+04   4.72500000000000000E+04   4.80000000000000000E+04
             4.87500000000000000E+04   4.95000000000000000E+04   5.02500000000000000E+04   5.10000000000000000E+04   5.17500000000000000E+04
             5.25000000000000000E+04   5.32500000000000000E+04   5.40000000000000000E+04   5.47500000000000000E+04   5.55000000000000000E+04
             5.62500000000000000E+04   5.70000000000000000E+04   5.77500000000000000E+04   5.85000000000000000E+04   5.92500000000000000E+04
             6.00000000000000000E+04
 ETA=   12   0.00000000000000000E+00   7.50000000000000000E+02   1.50000000000000000E+03   2.25000000000000000E+03   3.00000000000000000E+03
             3.75000000000000000E+03   4.50000000000000000E+03   5.25000000000000000E+03   6.00000000000000000E+03   6.75000000000000000E+03
             7.50000000000000000E+03   8.25000000000000000E+03   9.00000000000000000E+03   9.75000000000000000E+03   1.05000000000000000E+04
             1.12500000000000000E+04   1.20000000000000000E+04   1.27500000000000000E+04   1.35000000000000000E+04   1.42500000000000000E+04
             1.50000000000000000E+04   1.57500000000000000E+04   1.65000000000000000E+04   1.72500000000000000E+04   1.80000000000000000E+04
             1.87500000000000000E+04   1.95000000000000000E+04   2.02500000000000000E+04   2.10000000000000000E+04   2.17500000000000000E+04
             2.25000000000000000E+04   2.32500000000000000E+04   2.40000000000000000E+04   2.47500000000000000E+04   2.55000000000000000E+04
             2.62500000000000000E+04   2.70000000000000000E+04   2.77500000000000000E+04   2.85000000000000000E+04   2.92500000000000000E+04
             3.00000000000000000E+04   3.07500000000000000E+04   3.15000000000000000E+04   3.22500000000000000E+04   3.30000000000000000E+04
             3.37500000000000000E+04   3.45000000000000000E+04   3.52500000000000000E+04   3.60000000000000000E+04   3.67500000000000000E+04
             3.75000000000000000E+04   3.82500000000000000E+04   3.90000000000000000E+04   3.97500000000000000E+04   4.05000000000000000E+04
             4.12500000000000000E+04   4.20000000000000000E+04   4.27500000000000000E+04   4.35000000000000000E+04   4.42500000000000000E+04
             4.50000000000000000E+04   4.57500000000000000E+04   4.65000000000000000E+04   4.72500000000000000E+04   4.80000000000000000E+04
             4.87500000000000000E+04   4.95000000000000000E+04   5.02500000000000000E+04   5.10000000000000000E+04   5.17500000000000000E+04
             5.25000000000000000E+04   5.32500000000000000E+04   5.40000000000000000E+04   5.47500000000000000E+04   5.55000000000000000E+04
             5.62500000000000000E+04   5.70000000000000000E+04   5.77500000000000000E+04   5.85000000000000000E+04   5.92500000000000000E+04
             6.00000000000000000E+04
 ETA=   13   0.00000000000000000E+00   7.50000000000000000E+02   1.50000000000000000E+03   2.25000000000000000E+03   3.00000000000000000E+03
             3.75000000000000000E+03   4.50000000000000000E+03   5.25000000000000000E+03   6.00000000000000000E+03   6.75000000000000000E+03
             7.50000000000000000E+03   8.25000000000000000E+03   9.00000000000000000E+03   9.75000000000000000E+03   1.05000000000000000E+04
             1.12500000000000000E+04   1.20000000000000000E+04   1.27500000000000000E+04   1.35000000000000000E+04   1.42500000000000000E+04
             1.50000000000000000E+04   1.57500000000000000E+04   1.65000000000000000E+04   1.72500000000000000E+04   1.80000000000000000E+04
             1.87500000000000000E+04   1.95000000000000000E+04   2.02500000000000000E+04   2.10000000000000000E+04   2.17500000000000000E+04
             2.25000000000000000E+04   2.32500000000000000E+04   2.40000000000000000E+04   2.47500000000000000E+04   2.55000000000000000E+04
             2.62500000000000000E+04   2.70000000000000000E+04   2.77500000000000000E+04   2.85000000000000000E+04   2.92500000000000000E+04
             3.00000000000000000E+04   3.07500000000000000E+04   3.15000000000000000E+04   3.22500000000000000E+04   3.30000000000000000E+04
             3.37500000000000000E+04   3.45000000000000000E+04   3.52500000000000000E+04   3.60000000000000000E+04   3.67500000000000000E+04
             3.75000000000000000E+04   3.82500000000000000E+04   3.90000000000000000E+04   3.97500000000000000E+04   4.05000000000000000E+04
             4.12500000000000000E+04   4.20000000000000000E+04   4.27500000000000000E+04   4.35000000000000000E+04   4.42500000000000000E+04
             4.50000000000000000E+04   4.57500000000000000E+04   4.65000000000000000E+04   4.72500000000000000E+04   4.80000000000000000E+04
             4.87500000000000000E+04   4.95000000000000000E+04   5.02500000000000000E+04   5.10000000000000000E+04   5.17500000000000000E+04
             5.25000000000000000E+04   5.32500000000000000E+04   5.40000000000000000E+04   5.47500000000000000E+04   5.55000000000000000E+04
             5.62500000000000000E+04   5.70000000000000000E+04   5.77500000000000000E+04   5.85000000000000000E+04   5.92500000000000000E+04
             6.00000000000000000E+04
 ETA=   14   0.00000000000000000E+00   7.50000000000000000E+02   1.50000000000000000E+03   2.25000000000000000E+03   3.00000000000000000E+03
             3.75000000000000000E+03   4.50000000000000000E+03   5.25000000000000000E+03   6.00000000000000000E+03   6.75000000000000000E+03
             7.50000000000000000E+03   8.25000000000000000E+03   9.00000000000000000E+03   9.75000000000000000E+03   1.05000000000000000E+04
             1.12500000000000000E+04   1.20000000000000000E+04   1.27500000000000000E+04   1.35000000000000000E+04   1.42500000000000000E+04
             1.50000000000000000E+04   1.57500000000000000E+04   1.65000000000000000E+04   1.72500000000000000E+04   1.80000000000000000E+04
             1.87500000000000000E+04   1.95000000000000000E+04   2.02500000000000000E+04   2.10000000000000000E+04   2.17500000000000000E+04
             2.25000000000000000E+04   2.32500000000000000E+04   2.40000000000000000E+04   2.47500000000000000E+04   2.55000000000000000E+04
             2.62500000000000000E+04   2.70000000000000000E+04   2.77500000000000000E+04   2.85000000000000000E+04   2.92500000000000000E+04
             3.00000000000000000E+04   3.07500000000000000E+04   3.15000000000000000E+04   3.22500000000000000E+04   3.30000000000000000E+04
             3.37500000000000000E+04   3.45000000000000000E+04   3.52500000000000000E+04   3.60000000000000000E+04   3.67500000000000000E+04
             3.75000000000000000E+04   3.82500000000000000E+04   3.90000000000000000E+04   3.97500000000000000E+04   4.05000000000000000E+04
             4.12500000000000000E+04   4.20000000000000000E+04   4.27500000000000000E+04   4.35000000000000000E+04   4.42500000000000000E+04
             4.50000000000000000E+04   4.57500000000000000E+04   4.65000000000000000E+04   4.72500000000000000E+04   4.80000000000000000E+04
             4.87500000000000000E+04   4.95000000000000000E+04   5.02500000000000000E+04   5.10000000000000000E+04   5.17500000000000000E+04
             5.25000000000000000E+04   5.32500000000000000E+04   5.40000000000000000E+04   5.47500000000000000E+04   5.55000000000000000E+04
             5.62500000000000000E+04   5.70000000000000000E+04   5.77500000000000000E+04   5.85000000000000000E+04   5.92500000000000000E+04
             6.00000000000000000E+04
 ETA=   15   0.00000000000000000E+00   7.50000000000000000E+02   1.50000000000000000E+03   2.25000000000000000E+03   3.00000000000000000E+03
             3.75000000000000000E+03   4.50000000000000000E+03   5.25000000000000000E+03   6.00000000000000000E+03   6.75000000000000000E+03
             7.50000000000000000E+03   8.25000000000000000E+03   9.00000000000000000E+03   9.75000000000000000E+03   1.05000000000000000E+04
             1.12500000000000000E+04   1.20000000000000000E+04   1.27500000000000000E+04   1.35000000000000000E+04   1.42500000000000000E+04
             1.50000000000000000E+04   1.57500000000000000E+04   1.65000000000000000E+04   1.72500000000000000E+04   1.80000000000000000E+04
             1.87500000000000000E+04   1.95000000000000000E+04   2.02500000000000000E+04   2.10000000000000000E+04   2.17500000000000000E+04
             2.25000000000000000E+04   2.32500000000000000E+04   2.40000000000000000E+04   2.47500000000000000E+04   2.55000000000000000E+04
             2.62500000000000000E+04   2.70000000000000000E+04   2.77500000000000000E+04   2.85000000000000000E+04   2.92500000000000000E+04
             3.00000000000000000E+04   3.07500000000000000E+04   3.15000000000000000E+04   3.22500000000000000E+04   3.30000000000000000E+04
             3.37500000000000000E+04   3.45000000000000000E+04   3.52500000000000000E+04   3.60000000000000000E+04   3.67500000000000000E+04
             3.75000000000000000E+04   3.82500000000000000E+04   3.90000000000000000E+04   3.97500000000000000E+04   4.05000000000000000E+04
             4.12500000000000000E+04   4.20000000000000000E+04   4.27500000000000000E+04   4.35000000000000000E+04   4.42500000000000000E+04
             4.50000000000000000E+04   4.57500000000000000E+04   4.65000000000000000E+04   4.72500000000000000E+04   4.80000000000000000E+04
             4.87500000000000000E+04   4.95000000000000000E+04   5.02500000000000000E+04   5.10000000000000000E+04   5.17500000000000000E+04
             5.25000000000000000E+04   5.32500000000000000E+04   5.40000000000000000E+04   5.47500000000000000E+04   5.55000000000000000E+04
             5.62500000000000000E+04   5.70000000000000000E+04   5.77500000000000000E+04   5.85000000000000000E+04   5.92500000000000000E+04
             6.00000000000000000E+04
 ETA=   16   0.00000000000000000E+00   7.50000000000000000E+02   1.50000000000000000E+03   2.25000000000000000E+03   3.00000000000000000E+03
             3.75000000000000000E+03   4.50000000000000000E+03   5.25000000000000000E+03   6.00000000000000000E+03   6.75000000000000000E+03
             7.50000000000000000E+03   8.25000000000000000E+03   9.00000000000000000E+03   9.75000000000000000E+03   1.05000000000000000E+04
             1.12500000000000000E+04   1.20000000000000000E+04   1.27500000000000000E+04   1.35000000000000000E+04   1.42500000000000000E+04
             1.50000000000000000E+04   1.57500000000000000E+04   1.65000000000000000E+04   1.72500000000000000E+04   1.80000000000000000E+04
             1.87500000000000000E+04   1.95000000000000000E+04   2.02500000000000000E+04   2.10000000000000000E+04   2.17500000000000000E+04
             2.25000000000000000E+04   2.32500000000000000E+04   2.40000000000000000E+04   2.47500000000000000E+04   2.55000000000000000E+04
             2.62500000000000000E+04   2.70000000000000000E+04   2.77500000000000000E+04   2.85000000000000000E+04   2.92500000000000000E+04
             3.00000000000000000E+04   3.07500000000000000E+04   3.15000000000000000E+04   3.22500000000000000E+04   3.30000000000000000E+04
             3.37500000000000000E+04   3.45000000000000000E+04   3.52500000000000000E+04   3.60000000000000000E+04   3.67500000000000000E+04
             3.75000000000000000E+04   3.82500000000000000E+04   3.90000000000000000E+04   3.97500000000000000E+04   4.05000000000000000E+04
             4.12500000000000000E+04   4.20000000000000000E+04   4.27500000000000000E+04   4.35000000000000000E+04   4.42500000000000000E+04
             4.50000000000000000E+04   4.57500000000000000E+04   4.65000000000000000E+04   4.72500000000000000E+04   4.80000000000000000E+04
             4.87500000000000000E+04   4.95000000000000000E+04   5.02500000000000000E+04   5.10000000000000000E+04   5.17500000000000000E+04
             5.25000000000000000E+04   5.32500000000000000E+04   5.40000000000000000E+04   5.47500000000000000E+04   5.55000000000000000E+04
             5.62500000000000000E+04   5.70000000000000000E+04   5.77500000000000000E+04   5.85000000000000000E+04   5.92500000000000000E+04
             6.00000000000000000E+04
 ETA=   17   0.00000000000000000E+00   7.50000000000000000E+02   1.50000000000000000E+03   2.25000000000000000E+03   3.00000000000000000E+03
             3.75000000000000000E+03   4.50000000000000000E+03   5.25000000000000000E+03   6.00000000000000000E+03   6.75000000000000000E+03
             7.50000000000000000E+03   8.25000000000000000E+03   9.00000000000000000E+03   9.75000000000000000E+03   1.05000000000000000E+04
             1.12500000000000000E+04   1.20000000000000000E+04   1.27500000000000000E+04   1.35000000000000000E+04   1.42500000000000000E+04
             1.50000000000000000E+04   1.57500000000000000E+04   1.65000000000000000E+04   1.72500000000000000E+04   1.80000000000000000E+04
             1.87500000000000000E+04   1.95000000000000000E+04   2.02500000000000000E+04   2.10000000000000000E+04   2.17500000000000000E+04
             2.25000000000000000E+04   2.32500000000000000E+04   2.40000000000000000E+04   2.47500000000000000E+04   2.55000000000000000E+04
             2.62500000000000000E+04   2.70000000000000000E+04   2.77500000000000000E+04   2.85000000000000000E+04   2.92500000000000000E+04
             3.00000000000000000E+04   3.07500000000000000E+04   3.15000000000000000E+04   3.22500000000000000E+04   3.30000000000000000E+04
             3.37500000000000000E+04   3.45000000000000000E+04   3.52500000000000000E+04   3.60000000000000000E+04   3.67500000000000000E+04
             3.75000000000000000E+04   3.82500000000000000E+04   3.90000000000000000E+04   3.97500000000000000E+04   4.05000000000000000E+04
             4.12500000000000000E+04   4.20000000000000000E+04   4.27500000000000000E+04   4.35000000000000000E+04   4.42500000000000000E+04
             4.50000000000000000E+04   4.57500000000000000E+04   4.65000000000000000E+04   4.72500000000000000E+04   4.80000000000000000E+04
             4.87500000000000000E+04   4.95000000000000000E+04   5.02500000000000000E+04   5.10000000000000000E+04   5.17500000000000000E+04
             5.25000000000000000E+04   5.32500000000000000E+04   5.40000000000000000E+04   5.47500000000000000E+04   5.55000000000000000E+04
             5.62500000000000000E+04   5.70000000000000000E+04   5.77500000000000000E+04   5.85000000000000000E+04   5.92500000000000000E+04
             6.00000000000000000E+04
 ETA=   18   0.00000000000000000E+00   7.50000000000000000E+02   1.50000000000000000E+03   2.25000000000000000E+03   3.00000000000000000E+03
             3.75000000000000000E+03   4.50000000000000000E+03   5.25000000000000000E+03   6.00000000000000000E+03   6.75000000000000000E+03
             7.50000000000000000E+03   8.25000000000000000E+03   9.00000000000000000E+03   9.75000000000000000E+03   1.05000000000000000E+04
             1.12500000000000000E+04   1.20000000000000000E+04   1.27500000000000000E+04   1.35000000000000000E+04   1.42500000000000000E+04
             1.50000000000000000E+04   1.57500000000000000E+04   1.65000000000000000E+04   1.72500000000000000E+04   1.80000000000000000E+04
             1.87500000000000000E+04   1.95000000000000000E+04   2.02500000000000000E+04   2.10000000000000000E+04   2.17500000000000000E+04
             2.25000000000000000E+04   2.32500000000000000E+04   2.40000000000000000E+04   2.47500000000000000E+04   2.55000000000000000E+04
             2.62500000000000000E+04   2.70000000000000000E+04   2.77500000000000000E+04   2.85000000000000000E+04   2.92500000000000000E+04
             3.00000000000000000E+04   3.07500000000000000E+04   3.15000000000000000E+04   3.22500000000000000E+04   3.30000000000000000E+04
             3.37500000000000000E+04   3.45000000000000000E+04   3.52500000000000000E+04   3.60000000000000000E+04   3.67500000000000000E+04
             3.75000000000000000E+04   3.82500000000000000E+04   3.90000000000000000E+04   3.97500000000000000E+04   4.05000000000000000E+04
             4.12500000000000000E+04   4.20000000000000000E+04   4.27500000000000000E+04   4.35000000000000000E+04   4.42500000000000000E+04
             4.50000000000000000E+04   4.57500000000000000E+04   4.65000000000000000E+04   4.72500000000000000E+04   4.80000000000000000E+04
             4.87500000000000000E+04   4.95000000000000000E+04   5.02500000000000000E+04   5.10000000000000000E+04   5.17500000000000000E+04
             5.25000000000000000E+04   5.32500000000000000E+04   5.40000000000000000E+04   5.47500000000000000E+04   5.55000000000000000E+04
             5.62500000000000000E+04   5.70000000000000000E+04   5.77500000000000000E+04   5.85000000000000000E+04   5.92500000000000000E+04
             6.00000000000000000E+04
 ETA=   19   0.00000000000000000E+00   7.50000000000000000E+02   1.50000000000000000E+03   2.25000000000000000E+03   3.00000000000000000E+03
             3.75000000000000000E+03   4.50000000000000000E+03   5.25000000000000000E+03   6.00000000000000000E+03   6.75000000000000000E+03
             7.50000000000000000E+03   8.25000000000000000E+03   9.00000000000000000E+03   9.75000000000000000E+03   1.05000000000000000E+04
             1.12500000000000000E+04   1.20000000000000000E+04   1.27500000000000000E+04   1.35000000000000000E+04   1.42500000000000000E+04
             1.50000000000000000E+04   1.57500000000000000E+04   1.65000000000000000E+04   1.72500000000000000E+04   1.80000000000000000E+04
             1.87500000000000000E+04   1.95000000000000000E+04   2.02500000000000000E+04   2.10000000000000000E+04   2.17500000000000000E+04
             2.25000000000000000E+04   2.32500000000000000E+04   2.40000000000000000E+04   2.47500000000000000E+04   2.55000000000000000E+04
             2.62500000000000000E+04   2.70000000000000000E+04   2.77500000000000000E+04   2.85000000000000000E+04   2.92500000000000000E+04
             3.00000000000000000E+04   3.07500000000000000E+04   3.15000000000000000E+04   3.22500000000000000E+04   3.30000000000000000E+04
             3.37500000000000000E+04   3.45000000000000000E+04   3.52500000000000000E+04   3.60000000000000000E+04   3.67500000000000000E+04
             3.75000000000000000E+04   3.82500000000000000E+04   3.90000000000000000E+04   3.97500000000000000E+04   4.05000000000000000E+04
             4.12500000000000000E+04   4.20000000000000000E+04   4.27500000000000000E+04   4.35000000000000000E+04   4.42500000000000000E+04
             4.50000000000000000E+04   4.57500000000000000E+04   4.65000000000000000E+04   4.72500000000000000E+04   4.80000000000000000E+04
             4.87500000000000000E+04   4.95000000000000000E+04   5.02500000000000000E+04   5.10000000000000000E+04   5.17500000000000000E+04
             5.25000000000000000E+04   5.32500000000000000E+04   5.40000000000000000E+04   5.47500000000000000E+04   5.55000000000000000E+04
             5.62500000000000000E+04   5.70000000000000000E+04   5.77500000000000000E+04   5.85000000000000000E+04   5.92500000000000000E+04
             6.00000000000000000E+04
 ETA=   20   0.00000000000000000E+00   7.50000000000000000E+02   1.50000000000000000E+03   2.25000000000000000E+03   3.00000000000000000E+03
             3.75000000000000000E+03   4.50000000000000000E+03   5.25000000000000000E+03   6.00000000000000000E+03   6.75000000000000000E+03
             7.50000000000000000E+03   8.25000000000000000E+03   9.00000000000000000E+03   9.75000000000000000E+03   1.05000000000000000E+04
             1.12500000000000000E+04   1.20000000000000000E+04   1.27500000000000000E+04   1.35000000000000000E+04   1.42500000000000000E+04
             1.50000000000000000E+04   1.57500000000000000E+04   1.65000000000000000E+04   1.72500000000000000E+04   1.80000000000000000E+04
             1.87500000000000000E+04   1.95000000000000000E+04   2.02500000000000000E+04   2.10000000000000000E+04   2.17500000000000000E+04
             2.25000000000000000E+04   2.32500000000000000E+04   2.40000000000000000E+04   2.47500000000000000E+04   2.55000000000000000E+04
             2.62500000000000000E+04   2.70000000000000000E+04   2.77500000000000000E+04   2.85000000000000000E+04   2.92500000000000000E+04
             3.00000000000000000E+04   3.07500000000000000E+04   3.15000000000000000E+04   3.22500000000000000E+04   3.30000000000000000E+04
             3.37500000000000000E+04   3.45000000000000000E+04   3.52500000000000000E+04   3.60000000000000000E+04   3.67500000000000000E+04
             3.75000000000000000E+04   3.82500000000000000E+04   3.90000000000000000E+04   3.97500000000000000E+04   4.05000000000000000E+04
             4.12500000000000000E+04   4.20000000000000000E+04   4.27500000000000000E+04   4.35000000000000000E+04   4.42500000000000000E+04
             4.50000000000000000E+04   4.57500000000000000E+04   4.65000000000000000E+04   4.72500000000000000E+04   4.80000000000000000E+04
             4.87500000000000000E+04   4.95000000000000000E+04   5.02500000000000000E+04   5.10000000000000000E+04   5.17500000000000000E+04
             5.25000000000000000E+04   5.32500000000000000E+04   5.40000000000000000E+04   5.47500000000000000E+04   5.55000000000000000E+04
             5.62500000000000000E+04   5.70000000000000000E+04   5.77500000000000000E+04   5.85000000000000000E+04   5.92500000000000000E+04
             6.00000000000000000E+04
 ETA=   21   0.00000000000000000E+00   7.50000000000000000E+02   1.50000000000000000E+03   2.25000000000000000E+03   3.00000000000000000E+03
             3.75000000000000000E+03   4.50000000000000000E+03   5.25000000000000000E+03   6.00000000000000000E+03   6.75000000000000000E+03
             7.50000000000000000E+03   8.25000000000000000E+03   9.00000000000000000E+03   9.75000000000000000E+03   1.05000000000000000E+04
             1.12500000000000000E+04   1.20000000000000000E+04   1.27500000000000000E+04   1.35000000000000000E+04   1.42500000000000000E+04
             1.50000000000000000E+04   1.57500000000000000E+04   1.65000000000000000E+04   1.72500000000000000E+04   1.80000000000000000E+04
             1.87500000000000000E+04   1.95000000000000000E+04   2.02500000000000000E+04   2.10000000000000000E+04   2.17500000000000000E+04
             2.25000000000000000E+04   2.32500000000000000E+04   2.40000000000000000E+04   2.47500000000000000E+04   2.55000000000000000E+04
             2.62500000000000000E+04   2.70000000000000000E+04   2.77500000000000000E+04   2.85000000000000000E+04   2.92500000000000000E+04
             3.00000000000000000E+04   3.07500000000000000E+04   3.15000000000000000E+04   3.22500000000000000E+04   3.30000000000000000E+04
             3.37500000000000000E+04   3.45000000000000000E+04   3.52500000000000000E+04   3.60000000000000000E+04   3.67500000000000000E+04
             3.75000000000000000E+04   3.82500000000000000E+04   3.90000000000000000E+04   3.97500000000000000E+04   4.05000000000000000E+04
             4.12500000000000000E+04   4.20000000000000000E+04   4.27500000000000000E+04   4.35000000000000000E+04   4.42500000000000000E+04
             4.50000000000000000E+04   4.57500000000000000E+04   4.65000000000000000E+04   4.72500000000000000E+04   4.80000000000000000E+04
             4.87500000000000000E+04   4.95000000000000000E+04   5.02500000000000000E+04   5.10000000000000000E+04   5.17500000000000000E+04
             5.25000000000000000E+04   5.32500000000000000E+04   5.40000000000000000E+04   5.47500000000000000E+04   5.55000000000000000E+04
             5.62500000000000000E+04   5.70000000000000000E+04   5.77500000000000000E+04   5.85000000000000000E+04   5.92500000000000000E+04
             6.00000000000000000E+04
 ETA=   22   0.00000000000000000E+00   7.50000000000000000E+02   1.50000000000000000E+03   2.25000000000000000E+03   3.00000000000000000E+03
             3.75000000000000000E+03   4.50000000000000000E+03   5.25000000000000000E+03   6.00000000000000000E+03   6.75000000000000000E+03
             7.50000000000000000E+03   8.25000000000000000E+03   9.00000000000000000E+03   9.75000000000000000E+03   1.05000000000000000E+04
             1.12500000000000000E+04   1.20000000000000000E+04   1.27500000000000000E+04   1.35000000000000000E+04   1.42500000000000000E+04
             1.50000000000000000E+04   1.57500000000000000E+04   1.65000000000000000E+04   1.72500000000000000E+04   1.80000000000000000E+04
             1.87500000000000000E+04   1.95000000000000000E+04   2.02500000000000000E+04   2.10000000000000000E+04   2.17500000000000000E+04
             2.25000000000000000E+04   2.32500000000000000E+04   2.40000000000000000E+04   2.47500000000000000E+04   2.55000000000000000E+04
             2.62500000000000000E+04   2.70000000000000000E+04   2.77500000000000000E+04   2.85000000000000000E+04   2.92500000000000000E+04
             3.00000000000000000E+04   3.07500000000000000E+04   3.15000000000000000E+04   3.22500000000000000E+04   3.30000000000000000E+04
             3.37500000000000000E+04   3.45000000000000000E+04   3.52500000000000000E+04   3.60000000000000000E+04   3.67500000000000000E+04
             3.75000000000000000E+04   3.82500000000000000E+04   3.90000000000000000E+04   3.97500000000000000E+04   4.05000000000000000E+04
             4.12500000000000000E+04   4.20000000000000000E+04   4.27500000000000000E+04   4.35000000000000000E+04   4.42500000000000000E+04
             4.50000000000000000E+04   4.57500000000000000E+04   4.65000000000000000E+04   4.72500000000000000E+04   4.80000000000000000E+04
             4.87500000000000000E+04   4.95000000000000000E+04   5.02500000000000000E+04   5.10000000000000000E+04   5.17500000000000000E+04
             5.25000000000000000E+04   5.32500000000000000E+04   5.40000000000000000E+04   5.47500000000000000E+04   5.55000000000000000E+04
             5.62500000000000000E+04   5.70000000000000000E+04   5.77500000000000000E+04   5.85000000000000000E+04   5.92500000000000000E+04
             6.00000000000000000E+04
 ETA=   23   0.00000000000000000E+00   7.50000000000000000E+02   1.50000000000000000E+03   2.25000000000000000E+03   3.00000000000000000E+03
             3.75000000000000000E+03   4.50000000000000000E+03   5.25000000000000000E+03   6.00000000000000000E+03   6.75000000000000000E+03
             7.50000000000000000E+03   8.25000000000000000E+03   9.00000000000000000E+03   9.75000000000000000E+03   1.05000000000000000E+04
             1.12500000000000000E+04   1.20000000000000000E+04   1.27500000000000000E+04   1.35000000000000000E+04   1.42500000000000000E+04
             1.50000000000000000E+04   1.57500000000000000E+04   1.65000000000000000E+04   1.72500000000000000E+04   1.80000000000000000E+04
             1.87500000000000000E+04   1.95000000000000000E+04   2.02500000000000000E+04   2.10000000000000000E+04   2.17500000000000000E+04
             2.25000000000000000E+04   2.32500000000000000E+04   2.40000000000000000E+04   2.47500000000000000E+04   2.55000000000000000E+04
             2.62500000000000000E+04   2.70000000000000000E+04   2.77500000000000000E+04   2.85000000000000000E+04   2.92500000000000000E+04
             3.00000000000000000E+04   3.07500000000000000E+04   3.15000000000000000E+04   3.22500000000000000E+04   3.30000000000000000E+04
             3.37500000000000000E+04   3.45000000000000000E+04   3.52500000000000000E+04   3.60000000000000000E+04   3.67500000000000000E+04
             3.75000000000000000E+04   3.82500000000000000E+04   3.90000000000000000E+04   3.97500000000000000E+04   4.05000000000000000E+04
             4.12500000000000000E+04   4.20000000000000000E+04   4.27500000000000000E+04   4.35000000000000000E+04   4.42500000000000000E+04
             4.50000000000000000E+04   4.57500000000000000E+04   4.65000000000000000E+04   4.72500000000000000E+04   4.80000000000000000E+04
             4.87500000000000000E+04   4.95000000000000000E+04   5.02500000000000000E+04   5.10000000000000000E+04   5.17500000000000000E+04
             5.25000000000000000E+04   5.32500000000000000E+04   5.40000000000000000E+04   5.47500000000000000E+04   5.55000000000000000E+04
             5.62500000000000000E+04   5.70000000000000000E+04   5.77500000000000000E+04   5.85000000000000000E+04   5.92500000000000000E+04
             6.00000000000000000E+04
 ETA=   24   0.00000000000000000E+00   7.50000000000000000E+02   1.50000000000000000E+03   2.25000000000000000E+03   3.00000000000000000E+03
             3.75000000000000000E+03   4.50000000000000000E+03   5.25000000000000000E+03   6.00000000000000000E+03   6.75000000000000000E+03
             7.50000000000000000E+03   8.25000000000000000E+03   9.00000000000000000E+03   9.75000000000000000E+03   1.05000000000000000E+04
             1.12500000000000000E+04   1.20000000000000000E+04   1.27500000000000000E+04   1.35000000000000000E+04   1.42500000000000000E+04
             1.50000000000000000E+04   1.57500000000000000E+04   1.65000000000000000E+04   1.72500000000000000E+04   1.80000000000000000E+04
             1.87500000000000000E+04   1.95000000000000000E+04   2.02500000000000000E+04   2.10000000000000000E+04   2.17500000000000000E+04
             2.25000000000000000E+04   2.32500000000000000E+04   2.40000000000000000E+04   2.47500000000000000E+04   2.55000000000000000E+04
             2.62500000000000000E+04   2.70000000000000000E+04   2.77500000000000000E+04   2.85000000000000000E+04   2.92500000000000000E+04
             3.00000000000000000E+04   3.07500000000000000E+04   3.15000000000000000E+04   3.22500000000000000E+04   3.30000000000000000E+04
             3.37500000000000000E+04   3.45000000000000000E+04   3.52500000000000000E+04   3.60000000000000000E+04   3.67500000000000000E+04
             3.75000000000000000E+04   3.82500000000000000E+04   3.90000000000000000E+04   3.97500000000000000E+04   4.05000000000000000E+04
             4.12500000000000000E+04   4.20000000000000000E+04   4.27500000000000000E+04   4.35000000000000000E+04   4.42500000000000000E+04
             4.50000000000000000E+04   4.57500000000000000E+04   4.65000000000000000E+04   4.72500000000000000E+04   4.80000000000000000E+04
             4.87500000000000000E+04   4.95000000000000000E+04   5.02500000000000000E+04   5.10000000000000000E+04   5.17500000000000000E+04
             5.25000000000000000E+04   5.32500000000000000E+04   5.40000000000000000E+04   5.47500000000000000E+04   5.55000000000000000E+04
             5.62500000000000000E+04   5.70000000000000000E+04   5.77500000000000000E+04   5.85000000000000000E+04   5.92500000000000000E+04
             6.00000000000000000E+04
 ETA=   25   0.00000000000000000E+00   7.50000000000000000E+02   1.50000000000000000E+03   2.25000000000000000E+03   3.00000000000000000E+03
             3.75000000000000000E+03   4.50000000000000000E+03   5.25000000000000000E+03   6.00000000000000000E+03   6.75000000000000000E+03
             7.50000000000000000E+03   8.25000000000000000E+03   9.00000000000000000E+03   9.75000000000000000E+03   1.05000000000000000E+04
             1.12500000000000000E+04   1.20000000000000000E+04   1.27500000000000000E+04   1.35000000000000000E+04   1.42500000000000000E+04
             1.50000000000000000E+04   1.57500000000000000E+04   1.65000000000000000E+04   1.72500000000000000E+04   1.80000000000000000E+04
             1.87500000000000000E+04   1.95000000000000000E+04   2.02500000000000000E+04   2.10000000000000000E+04   2.17500000000000000E+04
             2.25000000000000000E+04   2.32500000000000000E+04   2.40000000000000000E+04   2.47500000000000000E+04   2.55000000000000000E+04
             2.62500000000000000E+04   2.70000000000000000E+04   2.77500000000000000E+04   2.85000000000000000E+04   2.92500000000000000E+04
             3.00000000000000000E+04   3.07500000000000000E+04   3.15000000000000000E+04   3.22500000000000000E+04   3.30000000000000000E+04
             3.37500000000000000E+04   3.45000000000000000E+04   3.52500000000000000E+04   3.60000000000000000E+04   3.67500000000000000E+04
             3.75000000000000000E+04   3.82500000000000000E+04   3.90000000000000000E+04   3.97500000000000000E+04   4.05000000000000000E+04
             4.12500000000000000E+04   4.20000000000000000E+04   4.27500000000000000E+04   4.35000000000000000E+04   4.42500000000000000E+04
             4.50000000000000000E+04   4.57500000000000000E+04   4.65000000000000000E+04   4.72500000000000000E+04   4.80000000000000000E+04
             4.87500000000000000E+04   4.95000000000000000E+04   5.02500000000000000E+04   5.10000000000000000E+04   5.17500000000000000E+04
             5.25000000000000000E+04   5.32500000000000000E+04   5.40000000000000000E+04   5.47500000000000000E+04   5.55000000000000000E+04
             5.62500000000000000E+04   5.70000000000000000E+04   5.77500000000000000E+04   5.85000000000000000E+04   5.92500000000000000E+04
             6.00000000000000000E+04
 ETA=   26   0.00000000000000000E+00   7.50000000000000000E+02   1.50000000000000000E+03   2.25000000000000000E+03   3.00000000000000000E+03
             3.75000000000000000E+03   4.50000000000000000E+03   5.25000000000000000E+03   6.00000000000000000E+03   6.75000000000000000E+03
             7.50000000000000000E+03   8.25000000000000000E+03   9.00000000000000000E+03   9.75000000000000000E+03   1.05000000000000000E+04
             1.12500000000000000E+04   1.20000000000000000E+04   1.27500000000000000E+04   1.35000000000000000E+04   1.42500000000000000E+04
             1.50000000000000000E+04   1.57500000000000000E+04   1.65000000000000000E+04   1.72500000000000000E+04   1.80000000000000000E+04
             1.87500000000000000E+04   1.95000000000000000E+04   2.02500000000000000E+04   2.10000000000000000E+04   2.17500000000000000E+04
             2.25000000000000000E+04   2.32500000000000000E+04   2.40000000000000000E+04   2.47500000000000000E+04   2.55000000000000000E+04
             2.62500000000000000E+04   2.70000000000000000E+04   2.77500000000000000E+04   2.85000000000000000E+04   2.92500000000000000E+04
             3.00000000000000000E+04   3.07500000000000000E+04   3.15000000000000000E+04   3.22500000000000000E+04   3.30000000000000000E+04
             3.37500000000000000E+04   3.45000000000000000E+04   3.52500000000000000E+04   3.60000000000000000E+04   3.67500000000000000E+04
             3.75000000000000000E+04   3.82500000000000000E+04   3.90000000000000000E+04   3.97500000000000000E+04   4.05000000000000000E+04
             4.12500000000000000E+04   4.20000000000000000E+04   4.27500000000000000E+04   4.35000000000000000E+04   4.42500000000000000E+04
             4.50000000000000000E+04   4.57500000000000000E+04   4.65000000000000000E+04   4.72500000000000000E+04   4.80000000000000000E+04
             4.87500000000000000E+04   4.95000000000000000E+04   5.02500000000000000E+04   5.10000000000000000E+04   5.17500000000000000E+04
             5.25000000000000000E+04   5.32500000000000000E+04   5.40000000000000000E+04   5.47500000000000000E+04   5.55000000000000000E+04
             5.62500000000000000E+04   5.70000000000000000E+04   5.77500000000000000E+04   5.85000000000000000E+04   5.92500000000000000E+04
             6.00000000000000000E+04
 ETA=   27   0.00000000000000000E+00   7.50000000000000000E+02   1.50000000000000000E+03   2.25000000000000000E+03   3.00000000000000000E+03
             3.75000000000000000E+03   4.50000000000000000E+03   5.25000000000000000E+03   6.00000000000000000E+03   6.75000000000000000E+03
             7.50000000000000000E+03   8.25000000000000000E+03   9.00000000000000000E+03   9.75000000000000000E+03   1.05000000000000000E+04
             1.12500000000000000E+04   1.20000000000000000E+04   1.27500000000000000E+04   1.35000000000000000E+04   1.42500000000000000E+04
             1.50000000000000000E+04   1.57500000000000000E+04   1.65000000000000000E+04   1.72500000000000000E+04   1.80000000000000000E+04
             1.87500000000000000E+04   1.95000000000000000E+04   2.02500000000000000E+04   2.10000000000000000E+04   2.17500000000000000E+04
             2.25000000000000000E+04   2.32500000000000000E+04   2.40000000000000000E+04   2.47500000000000000E+04   2.55000000000000000E+04
             2.62500000000000000E+04   2.70000000000000000E+04   2.77500000000000000E+04   2.85000000000000000E+04   2.92500000000000000E+04
             3.00000000000000000E+04   3.07500000000000000E+04   3.15000000000000000E+04   3.22500000000000000E+04   3.30000000000000000E+04
             3.37500000000000000E+04   3.45000000000000000E+04   3.52500000000000000E+04   3.60000000000000000E+04   3.67500000000000000E+04
             3.75000000000000000E+04   3.82500000000000000E+04   3.90000000000000000E+04   3.97500000000000000E+04   4.05000000000000000E+04
             4.12500000000000000E+04   4.20000000000000000E+04   4.27500000000000000E+04   4.35000000000000000E+04   4.42500000000000000E+04
             4.50000000000000000E+04   4.57500000000000000E+04   4.65000000000000000E+04   4.72500000000000000E+04   4.80000000000000000E+04
             4.87500000000000000E+04   4.95000000000000000E+04   5.02500000000000000E+04   5.10000000000000000E+04   5.17500000000000000E+04
             5.25000000000000000E+04   5.32500000000000000E+04   5.40000000000000000E+04   5.47500000000000000E+04   5.55000000000000000E+04
             5.62500000000000000E+04   5.70000000000000000E+04   5.77500000000000000E+04   5.85000000000000000E+04   5.92500000000000000E+04
             6.00000000000000000E+04
 ETA=   28   0.00000000000000000E+00   7.50000000000000000E+02   1.50000000000000000E+03   2.25000000000000000E+03   3.00000000000000000E+03
             3.75000000000000000E+03   4.50000000000000000E+03   5.25000000000000000E+03   6.00000000000000000E+03   6.75000000000000000E+03
             7.50000000000000000E+03   8.25000000000000000E+03   9.00000000000000000E+03   9.75000000000000000E+03   1.05000000000000000E+04
             1.12500000000000000E+04   1.20000000000000000E+04   1.27500000000000000E+04   1.35000000000000000E+04   1.42500000000000000E+04
             1.50000000000000000E+04   1.57500000000000000E+04   1.65000000000000000E+04   1.72500000000000000E+04   1.80000000000000000E+04
             1.87500000000000000E+04   1.95000000000000000E+04   2.02500000000000000E+04   2.10000000000000000E+04   2.17500000000000000E+04
             2.25000000000000000E+04   2.32500000000000000E+04   2.40000000000000000E+04   2.47500000000000000E+04   2.55000000000000000E+04
             2.62500000000000000E+04   2.70000000000000000E+04   2.77500000000000000E+04   2.85000000000000000E+04   2.92500000000000000E+04
             3.00000000000000000E+04   3.07500000000000000E+04   3.15000000000000000E+04   3.22500000000000000E+04   3.30000000000000000E+04
             3.37500000000000000E+04   3.45000000000000000E+04   3.52500000000000000E+04   3.60000000000000000E+04   3.67500000000000000E+04
             3.75000000000000000E+04   3.82500000000000000E+04   3.90000000000000000E+04   3.97500000000000000E+04   4.05000000000000000E+04
             4.12500000000000000E+04   4.20000000000000000E+04   4.27500000000000000E+04   4.35000000000000000E+04   4.42500000000000000E+04
             4.50000000000000000E+04   4.57500000000000000E+04   4.65000000000000000E+04   4.72500000000000000E+04   4.80000000000000000E+04
             4.87500000000000000E+04   4.95000000000000000E+04   5.02500000000000000E+04   5.10000000000000000E+04   5.17500000000000000E+04
             5.25000000000000000E+04   5.32500000000000000E+04   5.40000000000000000E+04   5.47500000000000000E+04   5.55000000000000000E+04
             5.62500000000000000E+04   5.70000000000000000E+04   5.77500000000000000E+04   5.85000000000000000E+04   5.92500000000000000E+04
             6.00000000000000000E+04
 ETA=   29   0.00000000000000000E+00   7.50000000000000000E+02   1.50000000000000000E+03   2.25000000000000000E+03   3.00000000000000000E+03
             3.75000000000000000E+03   4.50000000000000000E+03   5.25000000000000000E+03   6.00000000000000000E+03   6.75000000000000000E+03
             7.50000000000000000E+03   8.25000000000000000E+03   9.00000000000000000E+03   9.75000000000000000E+03   1.05000000000000000E+04
             1.12500000000000000E+04   1.20000000000000000E+04   1.27500000000000000E+04   1.35000000000000000E+04   1.42500000000000000E+04
             1.50000000000000000E+04   1.57500000000000000E+04   1.65000000000000000E+04   1.72500000000000000E+04   1.80000000000000000E+04
             1.87500000000000000E+04   1.95000000000000000E+04   2.02500000000000000E+04   2.10000000000000000E+04   2.17500000000000000E+04
             2.25000000000000000E+04   2.32500000000000000E+04   2.40000000000000000E+04   2.47500000000000000E+04   2.55000000000000000E+04
             2.62500000000000000E+04   2.70000000000000000E+04   2.77500000000000000E+04   2.85000000000000000E+04   2.92500000000000000E+04
             3.00000000000000000E+04   3.07500000000000000E+04   3.15000000000000000E+04   3.22500000000000000E+04   3.30000000000000000E+04
             3.37500000000000000E+04   3.45000000000000000E+04   3.52500000000000000E+04   3.60000000000000000E+04   3.67500000000000000E+04
             3.75000000000000000E+04   3.82500000000000000E+04   3.90000000000000000E+04   3.97500000000000000E+04   4.05000000000000000E+04
             4.12500000000000000E+04   4.20000000000000000E+04   4.27500000000000000E+04   4.35000000000000000E+04   4.42500000000000000E+04
             4.50000000000000000E+04   4.57500000000000000E+04   4.65000000000000000E+04   4.72500000000000000E+04   4.80000000000000000E+04
             4.87500000000000000E+04   4.95000000000000000E+04   5.02500000000000000E+04   5.10000000000000000E+04   5.17500000000000000E+04
             5.25000000000000000E+04   5.32500000000000000E+04   5.40000000000000000E+04   5.47500000000000000E+04   5.55000000000000000E+04
             5.62500000000000000E+04   5.70000000000000000E+04   5.77500000000000000E+04   5.85000000000000000E+04   5.92500000000000000E+04
             6.00000000000000000E+04
 ETA=   30   0.00000000000000000E+00   7.50000000000000000E+02   1.50000000000000000E+03   2.25000000000000000E+03   3.00000000000000000E+03
             3.75000000000000000E+03   4.50000000000000000E+03   5.25000000000000000E+03   6.00000000000000000E+03   6.75000000000000000E+03
             7.50000000000000000E+03   8.25000000000000000E+03   9.00000000000000000E+03   9.75000000000000000E+03   1.05000000000000000E+04
             1.12500000000000000E+04   1.20000000000000000E+04   1.27500000000000000E+04   1.35000000000000000E+04   1.42500000000000000E+04
             1.50000000000000000E+04   1.57500000000000000E+04   1.65000000000000000E+04   1.72500000000000000E+04   1.80000000000000000E+04
             1.87500000000000000E+04   1.95000000000000000E+04   2.02500000000000000E+04   2.10000000000000000E+04   2.17500000000000000E+04
             2.25000000000000000E+04   2.32500000000000000E+04   2.40000000000000000E+04   2.47500000000000000E+04   2.55000000000000000E+04
             2.62500000000000000E+04   2.70000000000000000E+04   2.77500000000000000E+04   2.85000000000000000E+04   2.92500000000000000E+04
             3.00000000000000000E+04   3.07500000000000000E+04   3.15000000000000000E+04   3.22500000000000000E+04   3.30000000000000000E+04
             3.37500000000000000E+04   3.45000000000000000E+04   3.52500000000000000E+04   3.60000000000000000E+04   3.67500000000000000E+04
             3.75000000000000000E+04   3.82500000000000000E+04   3.90000000000000000E+04   3.97500000000000000E+04   4.05000000000000000E+04
             4.12500000000000000E+04   4.20000000000000000E+04   4.27500000000000000E+04   4.35000000000000000E+04   4.42500000000000000E+04
             4.50000000000000000E+04   4.57500000000000000E+04   4.65000000000000000E+04   4.72500000000000000E+04   4.80000000000000000E+04
             4.87500000000000000E+04   4.95000000000000000E+04   5.02500000000000000E+04   5.10000000000000000E+04   5.17500000000000000E+04
             5.25000000000000000E+04   5.32500000000000000E+04   5.40000000000000000E+04   5.47500000000000000E+04   5.55000000000000000E+04
             5.62500000000000000E+04   5.70000000000000000E+04   5.77500000000000000E+04   5.85000000000000000E+04   5.92500000000000000E+04
             6.00000000000000000E+04
 ETA=   31   0.00000000000000000E+00   7.50000000000000000E+02   1.50000000000000000E+03   2.25000000000000000E+03   3.00000000000000000E+03
             3.75000000000000000E+03   4.50000000000000000E+03   5.25000000000000000E+03   6.00000000000000000E+03   6.75000000000000000E+03
             7.50000000000000000E+03   8.25000000000000000E+03   9.00000000000000000E+03   9.75000000000000000E+03   1.05000000000000000E+04
             1.12500000000000000E+04   1.20000000000000000E+04   1.27500000000000000E+04   1.35000000000000000E+04   1.42500000000000000E+04
             1.50000000000000000E+04   1.57500000000000000E+04   1.65000000000000000E+04   1.72500000000000000E+04   1.80000000000000000E+04
             1.87500000000000000E+04   1.95000000000000000E+04   2.02500000000000000E+04   2.10000000000000000E+04   2.17500000000000000E+04
             2.25000000000000000E+04   2.32500000000000000E+04   2.40000000000000000E+04   2.47500000000000000E+04   2.55000000000000000E+04
             2.62500000000000000E+04   2.70000000000000000E+04   2.77500000000000000E+04   2.85000000000000000E+04   2.92500000000000000E+04
             3.00000000000000000E+04   3.07500000000000000E+04   3.15000000000000000E+04   3.22500000000000000E+04   3.30000000000000000E+04
             3.37500000000000000E+04   3.45000000000000000E+04   3.52500000000000000E+04   3.60000000000000000E+04   3.67500000000000000E+04
             3.75000000000000000E+04   3.82500000000000000E+04   3.90000000000000000E+04   3.97500000000000000E+04   4.05000000000000000E+04
             4.12500000000000000E+04   4.20000000000000000E+04   4.27500000000000000E+04   4.35000000000000000E+04   4.42500000000000000E+04
             4.50000000000000000E+04   4.57500000000000000E+04   4.65000000000000000E+04   4.72500000000000000E+04   4.80000000000000000E+04
             4.87500000000000000E+04   4.95000000000000000E+04   5.02500000000000000E+04   5.10000000000000000E+04   5.17500000000000000E+04
             5.25000000000000000E+04   5.32500000000000000E+04   5.40000000000000000E+04   5.47500000000000000E+04   5.55000000000000000E+04
             5.62500000000000000E+04   5.70000000000000000E+04   5.77500000000000000E+04   5.85000000000000000E+04   5.92500000000000000E+04
             6.00000000000000000E+04
 ETA=   32   0.00000000000000000E+00   7.50000000000000000E+02   1.50000000000000000E+03   2.25000000000000000E+03   3.00000000000000000E+03
             3.75000000000000000E+03   4.50000000000000000E+03   5.25000000000000000E+03   6.00000000000000000E+03   6.75000000000000000E+03
             7.50000000000000000E+03   8.25000000000000000E+03   9.00000000000000000E+03   9.75000000000000000E+03   1.05000000000000000E+04
             1.12500000000000000E+04   1.20000000000000000E+04   1.27500000000000000E+04   1.35000000000000000E+04   1.42500000000000000E+04
             1.50000000000000000E+04   1.57500000000000000E+04   1.65000000000000000E+04   1.72500000000000000E+04   1.80000000000000000E+04
             1.87500000000000000E+04   1.95000000000000000E+04   2.02500000000000000E+04   2.10000000000000000E+04   2.17500000000000000E+04
             2.25000000000000000E+04   2.32500000000000000E+04   2.40000000000000000E+04   2.47500000000000000E+04   2.55000000000000000E+04
             2.62500000000000000E+04   2.70000000000000000E+04   2.77500000000000000E+04   2.85000000000000000E+04   2.92500000000000000E+04
             3.00000000000000000E+04   3.07500000000000000E+04   3.15000000000000000E+04   3.22500000000000000E+04   3.30000000000000000E+04
             3.37500000000000000E+04   3.45000000000000000E+04   3.52500000000000000E+04   3.60000000000000000E+04   3.67500000000000000E+04
             3.75000000000000000E+04   3.82500000000000000E+04   3.90000000000000000E+04   3.97500000000000000E+04   4.05000000000000000E+04
             4.12500000000000000E+04   4.20000000000000000E+04   4.27500000000000000E+04   4.35000000000000000E+04   4.42500000000000000E+04
             4.50000000000000000E+04   4.57500000000000000E+04   4.65000000000000000E+04   4.72500000000000000E+04   4.80000000000000000E+04
             4.87500000000000000E+04   4.95000000000000000E+04   5.02500000000000000E+04   5.10000000000000000E+04   5.17500000000000000E+04
             5.25000000000000000E+04   5.32500000000000000E+04   5.40000000000000000E+04   5.47500000000000000E+04   5.55000000000000000E+04
             5.62500000000000000E+04   5.70000000000000000E+04   5.77500000000000000E+04   5.85000000000000000E+04   5.92500000000000000E+04
             6.00000000000000000E+04
 ETA=   33   0.00000000000000000E+00   7.50000000000000000E+02   1.50000000000000000E+03   2.25000000000000000E+03   3.00000000000000000E+03
             3.75000000000000000E+03   4.50000000000000000E+03   5.25000000000000000E+03   6.00000000000000000E+03   6.75000000000000000E+03
             7.50000000000000000E+03   8.25000000000000000E+03   9.00000000000000000E+03   9.75000000000000000E+03   1.05000000000000000E+04
             1.12500000000000000E+04   1.20000000000000000E+04   1.27500000000000000E+04   1.35000000000000000E+04   1.42500000000000000E+04
             1.50000000000000000E+04   1.57500000000000000E+04   1.65000000000000000E+04   1.72500000000000000E+04   1.80000000000000000E+04
             1.87500000000000000E+04   1.95000000000000000E+04   2.02500000000000000E+04   2.10000000000000000E+04   2.17500000000000000E+04
             2.25000000000000000E+04   2.32500000000000000E+04   2.40000000000000000E+04   2.47500000000000000E+04   2.55000000000000000E+04
             2.62500000000000000E+04   2.70000000000000000E+04   2.77500000000000000E+04   2.85000000000000000E+04   2.92500000000000000E+04
             3.00000000000000000E+04   3.07500000000000000E+04   3.15000000000000000E+04   3.22500000000000000E+04   3.30000000000000000E+04
             3.37500000000000000E+04   3.45000000000000000E+04   3.52500000000000000E+04   3.60000000000000000E+04   3.67500000000000000E+04
             3.75000000000000000E+04   3.82500000000000000E+04   3.90000000000000000E+04   3.97500000000000000E+04   4.05000000000000000E+04
             4.12500000000000000E+04   4.20000000000000000E+04   4.27500000000000000E+04   4.35000000000000000E+04   4.42500000000000000E+04
             4.50000000000000000E+04   4.57500000000000000E+04   4.65000000000000000E+04   4.72500000000000000E+04   4.80000000000000000E+04
             4.87500000000000000E+04   4.95000000000000000E+04   5.02500000000000000E+04   5.10000000000000000E+04   5.17500000000000000E+04
             5.25000000000000000E+04   5.32500000000000000E+04   5.40000000000000000E+04   5.47500000000000000E+04   5.55000000000000000E+04
             5.62500000000000000E+04   5.70000000000000000E+04   5.77500000000000000E+04   5.85000000000000000E+04   5.92500000000000000E+04
             6.00000000000000000E+04
 ETA=   34   0.00000000000000000E+00   7.50000000000000000E+02   1.50000000000000000E+03   2.25000000000000000E+03   3.00000000000000000E+03
             3.75000000000000000E+03   4.50000000000000000E+03   5.25000000000000000E+03   6.00000000000000000E+03   6.75000000000000000E+03
             7.50000000000000000E+03   8.25000000000000000E+03   9.00000000000000000E+03   9.75000000000000000E+03   1.05000000000000000E+04
             1.12500000000000000E+04   1.20000000000000000E+04   1.27500000000000000E+04   1.35000000000000000E+04   1.42500000000000000E+04
             1.50000000000000000E+04   1.57500000000000000E+04   1.65000000000000000E+04   1.72500000000000000E+04   1.80000000000000000E+04
             1.87500000000000000E+04   1.95000000000000000E+04   2.02500000000000000E+04   2.10000000000000000E+04   2.17500000000000000E+04
             2.25000000000000000E+04   2.32500000000000000E+04   2.40000000000000000E+04   2.47500000000000000E+04   2.55000000000000000E+04
             2.62500000000000000E+04   2.70000000000000000E+04   2.77500000000000000E+04   2.85000000000000000E+04   2.92500000000000000E+04
             3.00000000000000000E+04   3.07500000000000000E+04   3.15000000000000000E+04   3.22500000000000000E+04   3.30000000000000000E+04
             3.37500000000000000E+04   3.45000000000000000E+04   3.52500000000000000E+04   3.60000000000000000E+04   3.67500000000000000E+04
             3.75000000000000000E+04   3.82500000000000000E+04   3.90000000000000000E+04   3.97500000000000000E+04   4.05000000000000000E+04
             4.12500000000000000E+04   4.20000000000000000E+04   4.27500000000000000E+04   4.35000000000000000E+04   4.42500000000000000E+04
             4.50000000000000000E+04   4.57500000000000000E+04   4.65000000000000000E+04   4.72500000000000000E+04   4.80000000000000000E+04
             4.87500000000000000E+04   4.95000000000000000E+04   5.02500000000000000E+04   5.10000000000000000E+04   5.17500000000000000E+04
             5.25000000000000000E+04   5.32500000000000000E+04   5.40000000000000000E+04   5.47500000000000000E+04   5.55000000000000000E+04
             5.62500000000000000E+04   5.70000000000000000E+04   5.77500000000000000E+04   5.85000000000000000E+04   5.92500000000000000E+04
             6.00000000000000000E+04
 ETA=   35   0.00000000000000000E+00   7.50000000000000000E+02   1.50000000000000000E+03   2.25000000000000000E+03   3.00000000000000000E+03
             3.75000000000000000E+03   4.50000000000000000E+03   5.25000000000000000E+03   6.00000000000000000E+03   6.75000000000000000E+03
             7.50000000000000000E+03   8.25000000000000000E+03   9.00000000000000000E+03   9.75000000000000000E+03   1.05000000000000000E+04
             1.12500000000000000E+04   1.20000000000000000E+04   1.27500000000000000E+04   1.35000000000000000E+04   1.42500000000000000E+04
             1.50000000000000000E+04   1.57500000000000000E+04   1.65000000000000000E+04   1.72500000000000000E+04   1.80000000000000000E+04
             1.87500000000000000E+04   1.95000000000000000E+04   2.02500000000000000E+04   2.10000000000000000E+04   2.17500000000000000E+04
             2.25000000000000000E+04   2.32500000000000000E+04   2.40000000000000000E+04   2.47500000000000000E+04   2.55000000000000000E+04
             2.62500000000000000E+04   2.70000000000000000E+04   2.77500000000000000E+04   2.85000000000000000E+04   2.92500000000000000E+04
             3.00000000000000000E+04   3.07500000000000000E+04   3.15000000000000000E+04   3.22500000000000000E+04   3.30000000000000000E+04
             3.37500000000000000E+04   3.45000000000000000E+04   3.52500000000000000E+04   3.60000000000000000E+04   3.67500000000000000E+04
             3.75000000000000000E+04   3.82500000000000000E+04   3.90000000000000000E+04   3.97500000000000000E+04   4.05000000000000000E+04
             4.12500000000000000E+04   4.20000000000000000E+04   4.27500000000000000E+04   4.35000000000000000E+04   4.42500000000000000E+04
             4.50000000000000000E+04   4.57500000000000000E+04   4.65000000000000000E+04   4.72500000000000000E+04   4.80000000000000000E+04
[...]
             6.91000000000000000E+04   6.91000000000000000E+04   6.91000000000000000E+04   6.91000000000000000E+04   6.91000000000000000E+04
             6.91000000000000000E+04   6.91000000000000000E+04   6.91000000000000000E+04   6.91000000000000000E+04   6.91000000000000000E+04
             6.91000000000000000E+04   6.91000000000000000E+04   6.91000000000000000E+04   6.91000000000000000E+04   6.91000000000000000E+04
             6.91000000000000000E+04   6.91000000000000000E+04   6.91000000000000000E+04   6.91000000000000000E+04   6.91000000000000000E+04
             6.91000000000000000E+04   6.91000000000000000E+04   6.91000000000000000E+04   6.91000000000000000E+04   6.91000000000000000E+04
             6.91000000000000000E+04   6.91000000000000000E+04   6.91000000000000000E+04   6.91000000000000000E+04   6.91000000000000000E+04
             6.91000000000000000E+04   6.91000000000000000E+04   6.91000000000000000E+04   6.91000000000000000E+04   6.91000000000000000E+04
             6.91000000000000000E+04   6.91000000000000000E+04   6.91000000000000000E+04   6.91000000000000000E+04   6.91000000000000000E+04
             6.91000000000000000E+04   6.91000000000000000E+04   6.91000000000000000E+04   6.91000000000000000E+04   6.91000000000000000E+04
             6.91000000000000000E+04   6.91000000000000000E+04   6.91000000000000000E+04   6.91000000000000000E+04   6.91000000000000000E+04
             6.91000000000000000E+04   6.91000000000000000E+04   6.91000000000000000E+04   6.91000000000000000E+04   6.91000000000000000E+04
             6.91000000000000000E+04
 ETA=   94   6.98500000000000000E+04   6.98500000000000000E+04   6.98500000000000000E+04   6.98500000000000000E+04   6.98500000000000000E+04
             6.98500000000000000E+04   6.98500000000000000E+04   6.98500000000000000E+04   6.98500000000000000E+04   6.98500000000000000E+04
             6.98500000000000000E+04   6.98500000000000000E+04   6.98500000000000000E+04   6.98500000000000000E+04   6.98500000000000000E+04
             6.98500000000000000E+04   6.98500000000000000E+04   6.98500000000000000E+04   6.98500000000000000E+04   6.98500000000000000E+04
             6.98500000000000000E+04   6.98500000000000000E+04   6.98500000000000000E+04   6.98500000000000000E+04   6.98500000000000000E+04
             6.98500000000000000E+04   6.98500000000000000E+04   6.98500000000000000E+04   6.98500000000000000E+04   6.98500000000000000E+04
             6.98500000000000000E+04   6.98500000000000000E+04   6.98500000000000000E+04   6.98500000000000000E+04   6.98500000000000000E+04
             6.98500000000000000E+04   6.98500000000000000E+04   6.98500000000000000E+04   6.98500000000000000E+04   6.98500000000000000E+04
             6.98500000000000000E+04   6.98500000000000000E+04   6.98500000000000000E+04   6.98500000000000000E+04   6.98500000000000000E+04
             6.98500000000000000E+04   6.98500000000000000E+04   6.98500000000000000E+04   6.98500000000000000E+04   6.98500000000000000E+04
             6.98500000000000000E+04   6.98500000000000000E+04   6.98500000000000000E+04   6.98500000000000000E+04   6.98500000000000000E+04
             6.98500000000000000E+04   6.98500000000000000E+04   6.98500000000000000E+04   6.98500000000000000E+04   6.98500000000000000E+04
             6.98500000000000000E+04   6.98500000000000000E+04   6.98500000000000000E+04   6.98500000000000000E+04   6.98500000000000000E+04
             6.98500000000000000E+04   6.98500000000000000E+04   6.98500000000000000E+04   6.98500000000000000E+04   6.98500000000000000E+04
             6.98500000000000000E+04   6.98500000000000000E+04   6.98500000000000000E+04   6.98500000000000000E+04   6.98500000000000000E+04
             6.98500000000000000E+04   6.98500000000000000E+04   6.98500000000000000E+04   6.98500000000000000E+04   6.98500000000000000E+04
             6.98500000000000000E+04
 ETA=   95   7.06000000000000000E+04   7.06000000000000000E+04   7.06000000000000000E+04   7.06000000000000000E+04   7.06000000000000000E+04
             7.06000000000000000E+04   7.06000000000000000E+04   7.06000000000000000E+04   7.06000000000000000E+04   7.06000000000000000E+04
             7.06000000000000000E+04   7.06000000000000000E+04   7.06000000000000000E+04   7.06000000000000000E+04   7.06000000000000000E+04
             7.06000000000000000E+04   7.06000000000000000E+04   7.06000000000000000E+04   7.06000000000000000E+04   7.06000000000000000E+04
             7.06000000000000000E+04   7.06000000000000000E+04   7.06000000000000000E+04   7.06000000000000000E+04   7.06000000000000000E+04
             7.06000000000000000E+04   7.06000000000000000E+04   7.06000000000000000E+04   7.06000000000000000E+04   7.06000000000000000E+04
             7.06000000000000000E+04   7.06000000000000000E+04   7.06000000000000000E+04   7.06000000000000000E+04   7.06000000000000000E+04
             7.06000000000000000E+04   7.06000000000000000E+04   7.06000000000000000E+04   7.06000000000000000E+04   7.06000000000000000E+04
             7.06000000000000000E+04   7.06000000000000000E+04   7.06000000000000000E+04   7.06000000000000000E+04   7.06000000000000000E+04
             7.06000000000000000E+04   7.06000000000000000E+04   7.06000000000000000E+04   7.06000000000000000E+04   7.06000000000000000E+04
             7.06000000000000000E+04   7.06000000000000000E+04   7.06000000000000000E+04   7.06000000000000000E+04   7.06000000000000000E+04
             7.06000000000000000E+04   7.06000000000000000E+04   7.06000000000000000E+04   7.06000000000000000E+04   7.06000000000000000E+04
             7.06000000000000000E+04   7.06000000000000000E+04   7.06000000000000000E+04   7.06000000000000000E+04   7.06000000000000000E+04
             7.06000000000000000E+04   7.06000000000000000E+04   7.06000000000000000E+04   7.06000000000000000E+04   7.06000000000000000E+04
             7.06000000000000000E+04   7.06000000000000000E+04   7.06000000000000000E+04   7.06000000000000000E+04   7.06000000000000000E+04
             7.06000000000000000E+04   7.06000000000000000E+04   7.06000000000000000E+04   7.06000000000000000E+04   7.06000000000000000E+04
             7.06000000000000000E+04
 ETA=   96   7.13500000000000000E+04   7.13500000000000000E+04   7.13500000000000000E+04   7.13500000000000000E+04   7.13500000000000000E+04
             7.13500000000000000E+04   7.13500000000000000E+04   7.13500000000000000E+04   7.13500000000000000E+04   7.13500000000000000E+04
             7.13500000000000000E+04   7.13500000000000000E+04   7.13500000000000000E+04   7.13500000000000000E+04   7.13500000000000000E+04
             7.13500000000000000E+04   7.13500000000000000E+04   7.13500000000000000E+04   7.13500000000000000E+04   7.13500000000000000E+04
             7.13500000000000000E+04   7.13500000000000000E+04   7.13500000000000000E+04   7.13500000000000000E+04   7.13500000000000000E+04
             7.13500000000000000E+04   7.13500000000000000E+04   7.13500000000000000E+04   7.13500000000000000E+04   7.13500000000000000E+04
             7.13500000000000000E+04   7.13500000000000000E+04   7.13500000000000000E+04   7.13500000000000000E+04   7.13500000000000000E+04
             7.13500000000000000E+04   7.13500000000000000E+04   7.13500000000000000E+04   7.13500000000000000E+04   7.13500000000000000E+04
             7.13500000000000000E+04   7.13500000000000000E+04   7.13500000000000000E+04   7.13500000000000000E+04   7.13500000000000000E+04
             7.13500000000000000E+04   7.13500000000000000E+04   7.13500000000000000E+04   7.13500000000000000E+04   7.13500000000000000E+04
             7.13500000000000000E+04   7.13500000000000000E+04   7.13500000000000000E+04   7.13500000000000000E+04   7.13500000000000000E+04
             7.13500000000000000E+04   7.13500000000000000E+04   7.13500000000000000E+04   7.13500000000000000E+04   7.13500000000000000E+04
             7.13500000000000000E+04   7.13500000000000000E+04   7.13500000000000000E+04   7.13500000000000000E+04   7.13500000000000000E+04
             7.13500000000000000E+04   7.13500000000000000E+04   7.13500000000000000E+04   7.13500000000000000E+04   7.13500000000000000E+04
             7.13500000000000000E+04   7.13500000000000000E+04   7.13500000000000000E+04   7.13500000000000000E+04   7.13500000000000000E+04
             7.13500000000000000E+04   7.13500000000000000E+04   7.13500000000000000E+04   7.13500000000000000E+04   7.13500000000000000E+04
             7.13500000000000000E+04
 ETA=   97   7.21000000000000000E+04   7.21000000000000000E+04   7.21000000000000000E+04   7.21000000000000000E+04   7.21000000000000000E+04
             7.21000000000000000E+04   7.21000000000000000E+04   7.21000000000000000E+04   7.21000000000000000E+04   7.21000000000000000E+04
             7.21000000000000000E+04   7.21000000000000000E+04   7.21000000000000000E+04   7.21000000000000000E+04   7.21000000000000000E+04
             7.21000000000000000E+04   7.21000000000000000E+04   7.21000000000000000E+04   7.21000000000000000E+04   7.21000000000000000E+04
             7.21000000000000000E+04   7.21000000000000000E+04   7.21000000000000000E+04   7.21000000000000000E+04   7.21000000000000000E+04
             7.21000000000000000E+04   7.21000000000000000E+04   7.21000000000000000E+04   7.21000000000000000E+04   7.21000000000000000E+04
             7.21000000000000000E+04   7.21000000000000000E+04   7.21000000000000000E+04   7.21000000000000000E+04   7.21000000000000000E+04
             7.21000000000000000E+04   7.21000000000000000E+04   7.21000000000000000E+04   7.21000000000000000E+04   7.21000000000000000E+04
             7.21000000000000000E+04   7.21000000000000000E+04   7.21000000000000000E+04   7.21000000000000000E+04   7.21000000000000000E+04
             7.21000000000000000E+04   7.21000000000000000E+04   7.21000000000000000E+04   7.21000000000000000E+04   7.21000000000000000E+04
             7.21000000000000000E+04   7.21000000000000000E+04   7.21000000000000000E+04   7.21000000000000000E+04   7.21000000000000000E+04
             7.21000000000000000E+04   7.21000000000000000E+04   7.21000000000000000E+04   7.21000000000000000E+04   7.21000000000000000E+04
             7.21000000000000000E+04   7.21000000000000000E+04   7.21000000000000000E+04   7.21000000000000000E+04   7.21000000000000000E+04
             7.21000000000000000E+04   7.21000000000000000E+04   7.21000000000000000E+04   7.21000000000000000E+04   7.21000000000000000E+04
             7.21000000000000000E+04   7.21000000000000000E+04   7.21000000000000000E+04   7.21000000000000000E+04   7.21000000000000000E+04
             7.21000000000000000E+04   7.21000000000000000E+04   7.21000000000000000E+04   7.21000000000000000E+04   7.21000000000000000E+04
             7.21000000000000000E+04
 ETA=   98   7.28500000000000000E+04   7.28500000000000000E+04   7.28500000000000000E+04   7.28500000000000000E+04   7.28500000000000000E+04
             7.28500000000000000E+04   7.28500000000000000E+04   7.28500000000000000E+04   7.28500000000000000E+04   7.28500000000000000E+04
             7.28500000000000000E+04   7.28500000000000000E+04   7.28500000000000000E+04   7.28500000000000000E+04   7.28500000000000000E+04
             7.28500000000000000E+04   7.28500000000000000E+04   7.28500000000000000E+04   7.28500000000000000E+04   7.28500000000000000E+04
             7.28500000000000000E+04   7.28500000000000000E+04   7.28500000000000000E+04   7.28500000000000000E+04   7.28500000000000000E+04
             7.28500000000000000E+04   7.28500000000000000E+04   7.28500000000000000E+04   7.28500000000000000E+04   7.28500000000000000E+04
             7.28500000000000000E+04   7.28500000000000000E+04   7.28500000000000000E+04   7.28500000000000000E+04   7.28500000000000000E+04
             7.28500000000000000E+04   7.28500000000000000E+04   7.28500000000000000E+04   7.28500000000000000E+04   7.28500000000000000E+04
             7.28500000000000000E+04   7.28500000000000000E+04   7.28500000000000000E+04   7.28500000000000000E+04   7.28500000000000000E+04
             7.28500000000000000E+04   7.28500000000000000E+04   7.28500000000000000E+04   7.28500000000000000E+04   7.28500000000000000E+04
             7.28500000000000000E+04   7.28500000000000000E+04   7.28500000000000000E+04   7.28500000000000000E+04   7.28500000000000000E+04
             7.28500000000000000E+04   7.28500000000000000E+04   7.28500000000000000E+04   7.28500000000000000E+04   7.28500000000000000E+04
             7.28500000000000000E+04   7.28500000000000000E+04   7.28500000000000000E+04   7.28500000000000000E+04   7.28500000000000000E+04
             7.28500000000000000E+04   7.28500000000000000E+04   7.28500000000000000E+04   7.28500000000000000E+04   7.28500000000000000E+04
             7.28500000000000000E+04   7.28500000000000000E+04   7.28500000000000000E+04   7.28500000000000000E+04   7.28500000000000000E+04
             7.28500000000000000E+04   7.28500000000000000E+04   7.28500000000000000E+04   7.28500000000000000E+04   7.28500000000000000E+04
             7.28500000000000000E+04
 ETA=   99   7.36000000000000000E+04   7.36000000000000000E+04   7.36000000000000000E+04   7.36000000000000000E+04   7.36000000000000000E+04
             7.36000000000000000E+04   7.36000000000000000E+04   7.36000000000000000E+04   7.36000000000000000E+04   7.36000000000000000E+04
             7.36000000000000000E+04   7.36000000000000000E+04   7.36000000000000000E+04   7.36000000000000000E+04   7.36000000000000000E+04
             7.36000000000000000E+04   7.36000000000000000E+04   7.36000000000000000E+04   7.36000000000000000E+04   7.36000000000000000E+04
             7.36000000000000000E+04   7.36000000000000000E+04   7.36000000000000000E+04   7.36000000000000000E+04   7.36000000000000000E+04
             7.36000000000000000E+04   7.36000000000000000E+04   7.36000000000000000E+04   7.36000000000000000E+04   7.36000000000000000E+04
             7.36000000000000000E+04   7.36000000000000000E+04   7.36000000000000000E+04   7.36000000000000000E+04   7.36000000000000000E+04
             7.36000000000000000E+04   7.36000000000000000E+04   7.36000000000000000E+04   7.36000000000000000E+04   7.36000000000000000E+04
             7.36000000000000000E+04   7.36000000000000000E+04   7.36000000000000000E+04   7.36000000000000000E+04   7.36000000000000000E+04
             7.36000000000000000E+04   7.36000000000000000E+04   7.36000000000000000E+04   7.36000000000000000E+04   7.36000000000000000E+04
             7.36000000000000000E+04   7.36000000000000000E+04   7.36000000000000000E+04   7.36000000000000000E+04   7.36000000000000000E+04
             7.36000000000000000E+04   7.36000000000000000E+04   7.36000000000000000E+04   7.36000000000000000E+04   7.36000000000000000E+04
             7.36000000000000000E+04   7.36000000000000000E+04   7.36000000000000000E+04   7.36000000000000000E+04   7.36000000000000000E+04
             7.36000000000000000E+04   7.36000000000000000E+04   7.36000000000000000E+04   7.36000000000000000E+04   7.36000000000000000E+04
             7.36000000000000000E+04   7.36000000000000000E+04   7.36000000000000000E+04   7.36000000000000000E+04   7.36000000000000000E+04
             7.36000000000000000E+04   7.36000000000000000E+04   7.36000000000000000E+04   7.36000000000000000E+04   7.36000000000000000E+04
             7.36000000000000000E+04
 ETA=  100   7.43500000000000000E+04   7.43500000000000000E+04   7.43500000000000000E+04   7.43500000000000000E+04   7.43500000000000000E+04
             7.43500000000000000E+04   7.43500000000000000E+04   7.43500000000000000E+04   7.43500000000000000E+04   7.43500000000000000E+04
             7.43500000000000000E+04   7.43500000000000000E+04   7.43500000000000000E+04   7.43500000000000000E+04   7.43500000000000000E+04
             7.43500000000000000E+04   7.43500000000000000E+04   7.43500000000000000E+04   7.43500000000000000E+04   7.43500000000000000E+04
             7.43500000000000000E+04   7.43500000000000000E+04   7.43500000000000000E+04   7.43500000000000000E+04   7.43500000000000000E+04
             7.43500000000000000E+04   7.43500000000000000E+04   7.43500000000000000E+04   7.43500000000000000E+04   7.43500000000000000E+04
             7.43500000000000000E+04   7.43500000000000000E+04   7.43500000000000000E+04   7.43500000000000000E+04   7.43500000000000000E+04
             7.43500000000000000E+04   7.43500000000000000E+04   7.43500000000000000E+04   7.43500000000000000E+04   7.43500000000000000E+04
             7.43500000000000000E+04   7.43500000000000000E+04   7.43500000000000000E+04   7.43500000000000000E+04   7.43500000000000000E+04
             7.43500000000000000E+04   7.43500000000000000E+04   7.43500000000000000E+04   7.43500000000000000E+04   7.43500000000000000E+04
             7.43500000000000000E+04   7.43500000000000000E+04   7.43500000000000000E+04   7.43500000000000000E+04   7.43500000000000000E+04
             7.43500000000000000E+04   7.43500000000000000E+04   7.43500000000000000E+04   7.43500000000000000E+04   7.43500000000000000E+04
             7.43500000000000000E+04   7.43500000000000000E+04   7.43500000000000000E+04   7.43500000000000000E+04   7.43500000000000000E+04
             7.43500000000000000E+04   7.43500000000000000E+04   7.43500000000000000E+04   7.43500000000000000E+04   7.43500000000000000E+04
             7.43500000000000000E+04   7.43500000000000000E+04   7.43500000000000000E+04   7.43500000000000000E+04   7.43500000000000000E+04
             7.43500000000000000E+04   7.43500000000000000E+04   7.43500000000000000E+04   7.43500000000000000E+04   7.43500000000000000E+04
             7.43500000000000000E+04
 ETA=  101   7.51000000000000000E+04   7.51000000000000000E+04   7.51000000000000000E+04   7.51000000000000000E+04   7.51000000000000000E+04
             7.51000000000000000E+04   7.51000000000000000E+04   7.51000000000000000E+04   7.51000000000000000E+04   7.51000000000000000E+04
             7.51000000000000000E+04   7.51000000000000000E+04   7.51000000000000000E+04   7.51000000000000000E+04   7.51000000000000000E+04
             7.51000000000000000E+04   7.51000000000000000E+04   7.51000000000000000E+04   7.51000000000000000E+04   7.51000000000000000E+04
             7.51000000000000000E+04   7.51000000000000000E+04   7.51000000000000000E+04   7.51000000000000000E+04   7.51000000000000000E+04
             7.51000000000000000E+04   7.51000000000000000E+04   7.51000000000000000E+04   7.51000000000000000E+04   7.51000000000000000E+04
             7.51000000000000000E+04   7.51000000000000000E+04   7.51000000000000000E+04   7.51000000000000000E+04   7.51000000000000000E+04
             7.51000000000000000E+04   7.51000000000000000E+04   7.51000000000000000E+04   7.51000000000000000E+04   7.51000000000000000E+04
             7.51000000000000000E+04   7.51000000000000000E+04   7.51000000000000000E+04   7.51000000000000000E+04   7.51000000000000000E+04
             7.51000000000000000E+04   7.51000000000000000E+04   7.51000000000000000E+04   7.51000000000000000E+04   7.51000000000000000E+04
             7.51000000000000000E+04   7.51000000000000000E+04   7.51000000000000000E+04   7.51000000000000000E+04   7.51000000000000000E+04
             7.51000000000000000E+04   7.51000000000000000E+04   7.51000000000000000E+04   7.51000000000000000E+04   7.51000000000000000E+04
             7.51000000000000000E+04   7.51000000000000000E+04   7.51000000000000000E+04   7.51000000000000000E+04   7.51000000000000000E+04
             7.51000000000000000E+04   7.51000000000000000E+04   7.51000000000000000E+04   7.51000000000000000E+04   7.51000000000000000E+04
             7.51000000000000000E+04   7.51000000000000000E+04   7.51000000000000000E+04   7.51000000000000000E+04   7.51000000000000000E+04
             7.51000000000000000E+04   7.51000000000000000E+04   7.51000000000000000E+04   7.51000000000000000E+04   7.51000000000000000E+04
             7.51000000000000000E+04
