Ident  = #Delft3D-FLOW  .03.02 3.42.00.17210#
Commnt =                  
Filcco = #river1D.grd#
Anglat =  0.0000000e+000
Grdang =  0.0000000e+000
Filgrd = #river1D.enc#
MNKmax = 200 3 1
Thick  =  1.0000000e+002
Commnt =                  
Fildep = #riverslope1e-04.dep#
Commnt =                  
Commnt =                 no. dry points: 0
Commnt =                 no. thin dams: 0
Commnt =                  
Itdate = #2012-01-01#
Tunit  = #M#
Tstart =  0.0000000e+000
Tstop  =  7.2000000e+003
Dt     = 10
Tzone  = 0
Commnt =                  
Sub1   = #    #
Sub2   = #   #
Commnt =                  
Wnsvwp = #N#
Wndint = #Y#
Commnt =                  
Zeta0  =  1.0000000e+001
Commnt =                  
Commnt =                 no. open boundaries: 2
Filbnd = #river1D.bnd#
FilbcT = #river1D.bct#
Commnt =                  
Ag     =  9.8100000e+000
Rhow   =  1.0000000e+003
Tempw  =  1.5000000e+001
Salw   =  3.1000000e+001
Wstres =  6.3000000e-004  0.0000000e+000  7.2300000e-003  1.0000000e+002  7.2300000e-003  1.0000000e+002
Rhoa   =  1.0000000e+000
Betac  =  5.0000000e-001
Equili = #N#
Ktemp  = 0
Fclou  =  0.0000000e+000
Sarea  =  0.0000000e+000
Temint = #Y#
Commnt =                  
Roumet = #W#
Ccofu  =  2.5500000e-001
Ccofv  =  2.5500000e-001
Xlo    =  0.0000000e+000
Vicouv =  1.0000000e+000
Dicouv =  1.0000000e+000
Htur2d = #N#
Irov   = 0
Commnt =                  
Iter   =      2
Dryflp = #YES#
Dpsopt = #MAX#
Dpuopt = #MEAN#
Dryflc =  1.0000000e-001
Dco    = -9.9900000e+002
Tlfsmo =  6.0000000e+001
ThetQH =  0.0000000e+000
Forfuv = #Y#
Forfww = #N#
Sigcor = #N#
Trasol = #Cyclic-method#
Momsol = #Cyclic#
Commnt =                  
Commnt =                 no. discharges: 0
Commnt =                 no. observation points: 5
Filsta = #river1D.obs#
Commnt =                 no. drogues: 0
Commnt =                  
Commnt =                  
Commnt =                 no. cross sections: 0
Commnt =                  
SMhydr = #YYYYY#     
SMderv = #YYYYYY#    
SMproc = #YYYYYYYYYY#
PMhydr = #YYYYYY#    
PMderv = #YYY#       
PMproc = #YYYYYYYYYY#
SHhydr = #YYYY#      
SHderv = #YYYYY#     
SHproc = #YYYYYYYYYY#
SHflux = #YYYY#      
PHhydr = #YYYYYY#    
PHderv = #YYY#       
PHproc = #YYYYYYYYYY#
PHflux = #YYYY#      
Online = #N#
Flmap  =  0.0000000e+000 3600  7.2000000e+003
Flhis  =  0.0000000e+000 10  7.2000000e+003
Flpp   =  5.0688000e+005 0  5.0688000e+005
Flrst  = 7200
Commnt =                  
Trtrou = #Y#
Trtdef = #ruw.karak#
Trtu   = #river1D.aru#
Trtv   = #river1D.arv#
TrtDt  = 10
Commnt =                  
