Ident = #Delft3D-FLOW  .03.02 3.41.02#
Commnt=                              
Filcco= #4x3.grd#
Fmtcco= #FR#
Anglat=  0.0000000e+000
Grdang=  0.0000000e+000
Filgrd= #4x3.enc#
Fmtgrd= #FR#
MNKmax= 6 5 1
Thick =  1.0000000e+002
Commnt=                              
Depuni=  1.0000000e+001
Commnt=                              
Commnt=                              no. dry points: 0
Commnt=                              no. thin dams: 0
Commnt=                              
Itdate= #2006-01-01#
Tunit = #M#
Tstart=  0.0000000e+000
Tstop =  6.0000000e+001
Dt    = 1.0
Tzone = 0
Commnt=                              
Sub1  = #  W #
Sub2  = #   #
Commnt=                              
Wnsvwp= #N#
Filwnd= #dummy.wnd#
Fmtwnd= #FR#
Wndint= #Y#
Commnt=                              
Zeta0 =  0.0000000e+000
U0    = [.]
V0    = [.]
S0    = [.]
Commnt=                              
Commnt=                              no. open boundaries: 0
Commnt=                              
Ag    =  9.8100000e+000
Rhow  =  1.0000000e+003
Alph0 = [.]
Tempw =  1.5000000e+001
Salw  =  3.1000000e+001
Rouwav= #    #
Wstres=  6.3000000e-004  0.0000000e+000  7.2300000e-003  1.0000000e+002
Rhoa  =  1.0000000e+000
Betac =  5.0000000e-001
Equili= #N#
Tkemod= #            #
Ktemp = 0
Fclou =  0.0000000e+000
Sarea =  0.0000000e+000
Temint= #Y#
Commnt=                              
Roumet= #C#
Ccofu =  6.5000000e+001
Ccofv =  6.5000000e+001
Xlo   =  0.0000000e+000
Vicouv=  1.0000000e+000
Dicouv=  1.0000000e+001
Htur2d= #N#
Irov  = 0
Commnt=                              
Iter  =      2
Dryflp= #YES#
Dpsopt= #MAX#
Dpuopt= #MEAN#
Dryflc=  1.0000000e-001
Dco   = -9.9900000e+002
Tlfsmo=  6.0000000e+001
ThetQH=  0.0000000e+000
Forfuv= #Y#
Forfww= #N#
Sigcor= #N#
Trasol= #Cyclic-method#
Momsol= #Cyclic#
Commnt=                              
Commnt=                              no. discharges: 0
Filsta= #test.obs     #
Fmtsta= #FR#
Commnt=                              no. observation points: 0
Commnt=                              no. drogues: 0
Commnt=                              
Commnt=                              
Commnt=                              no. cross sections: 0
Commnt=                              
SMhydr= #YYYYY#     
SMderv= #YYYYYY#    
SMproc= #YYYYYYYYYY#
PMhydr= #YYYYYY#    
PMderv= #YYY#       
PMproc= #YYYYYYYYYY#
SHhydr= #YYYY#      
SHderv= #YYYYY#     
SHproc= #YYYYYYYYYY#
SHflux= #YYYY#      
PHhydr= #YYYYYY#    
PHderv= #YYY#       
PHproc= #YYYYYYYYYY#
PHflux= #YYYY#      
Online= #N#
Prmap = [.]
Prhis = 0.000000 0.000000 0.000000
Flmap =  0.0000000e+000 5.0  6.0000000e+001
Flhis =  0.0000000e+000 5.0  6.0000000e+001
Flpp  =  2.3846400e+006 0.0  2.3846400e+006
Flrst = 0.0
FlNcdf = #map his dro fou#
Commnt=                              
Fwndgu= #wind_with_noise.amu#
Fwndgv= #wind_with_noise.amv#
Fwndgp= #curvi_ll_corner_gridrow.amp#
Airout= #Y#
Commnt=                              
